Circuit: * D:\Users\mbt0c\OneDrive\Dokumente\Southampton\Part 2\D5\PSU\Draft5.asc

.OP point found by inspection.

Date: Thu Feb 16 15:09:33 2023
Total elapsed time: 0.118 seconds.

tnom = 27
temp = 27
method = modified trap
totiter = 51117
traniter = 51117
tranpoints = 20053
accept = 12055
rejected = 7998
matrix size = 3
fillins = 0
solver = Normal
Avg thread counts: 1.0/1.1/1.1/1.0
Matrix Compiler1:       3 opcodes  0.0/[0.0]/0.1
Matrix Compiler2: 175 bytes object code size  0.1/0.1/[0.1]

