Circuit: * D:\Users\mbt0c\OneDrive\Dokumente\Southampton\Part 2\D5\PSU\initial.asc


Direct Newton iteration failed to find .op point.  (Use ".option noopiter" to skip.)
Starting Gmin stepping
Increasing initial diagonal Gmin to 100
Gmin = 100
Gmin = 10.7374
Gmin = 1.15292
Gmin = 0.123794
Gmin = 0.0132923
Gmin = 0.00142725
Gmin = 0.00015325
vernier = 0.5
Gmin = 2.5711e-005
vernier = 0.25
vernier = 0.125
vernier = 0.0625
vernier = 0.03125
vernier = 0.015625
vernier = 0.0078125
vernier = 0.00390625
vernier = 0.00195313
vernier = 0.000976563
vernier = 0.000488281
Gmin = 2.5711e-005
Gmin = 0
Gmin stepping failed

Starting source stepping with srcstepmethod=0
Source Step = 3.0303%
vernier = 0.25
Source Step = 0.0355114%
Starting source stepping with srcstepmethod=1
Could not converge to DC with sources off!
Pseudo Transient failed in finding the operating point at 747.807 ms.
Trouble finding operating point....skipping operating point for Transient analysis.
Changing Tseed to 1e-007
Changing Tseed to 1e-009
Changing Tseed to 1e-006
Changing Tseed to 1e-010
Heightened Def Con from 9.49571e-007 to 9.49573e-007
Heightened Def Con from 9.49669e-007 to 9.49919e-007
Heightened Def Con from 1.23148e-006 to 1.23148e-006
Heightened Def Con from 1.23148e-006 to 1.23148e-006
Heightened Def Con from 1.23148e-006 to 1.23148e-006
Heightened Def Con from 1.23148e-006 to 1.23148e-006
Heightened Def Con from 1.23148e-006 to 1.23148e-006
Heightened Def Con from 1.23148e-006 to 1.23148e-006
Heightened Def Con from 1.23148e-006 +to 1.23148e-006
Heightened Def Con from 1.23148e-006 to 1.23148e-006
Heightened Def Con from 1.23148e-006 +to 1.23148e-006
Heightened Def Con from 1.23148e-006 to 1.23148e-006
Heightened Def Con from 1.23148e-006 to 1.23148e-006
Heightened Def Con from 1.23148e-006 +to 1.23148e-006
Heightened Def Con from 1.23148e-006 +to 1.23148e-006
Heightened Def Con from 1.23148e-006 ++++++++to 1.23148e-006
Heightened Def Con from 1.23148e-006 ++++++++++to 1.23148e-006
Heightened Def Con from 1.23148e-006 ++++++++++to 1.23148e-006
Heightened Def Con from 1.23148e-006 +++++++++to 1.23148e-006
Heightened Def Con from 1.23148e-006 ++++++++++to 1.23148e-006
Heightened Def Con from 1.23148e-006 ++++++++++to 1.23148e-006
Heightened Def Con from 1.23148e-006 +++++++++++to 1.23148e-006
Heightened Def Con from 1.23148e-006 +++++++++++to 1.23148e-006
Heightened Def Con from 1.23148e-006 ++++++++++++to 1.23148e-006
Heightened Def Con from 1.23148e-006 ++++++++++++to 1.23148e-006
Heightened Def Con from 1.23148e-006 ++++++++++++to 1.23148e-006
Heightened Def Con from 1.23148e-006 ++++++++++++to 1.23148e-006
Heightened Def Con from 1.23148e-006 ++++++++++++to 1.23148e-006
Heightened Def Con from 1.23148e-006 +++++++++++++to 1.23148e-006
Heightened Def Con from 1.23148e-006 +++++++++++++to 1.23148e-006
Heightened Def Con from 1.23148e-006 +++++++++++++to 1.23148e-006
Heightened Def Con from 1.23148e-006 +++++++++++++to 1.23148e-006
Heightened Def Con from 1.23148e-006 +++++++++++++to 1.23148e-006
Heightened Def Con from 1.23148e-006 +++++++++++++to 1.23148e-006
Heightened Def Con from 1.23148e-006 +++++++++++++to 1.23148e-006
Heightened Def Con from 1.23148e-006 +++++++++++++to 1.23148e-006
Heightened Def Con from 1.23148e-006 +++++++++++++to 1.23148e-006
Heightened Def Con from 1.23148e-006 +++++++++++++to 1.23148e-006
Heightened Def Con from 1.23148e-006 ++++++++++++++to 1.23148e-006
Heightened Def Con from 1.23148e-006 ++++++++++++++to 1.23148e-006
Heightened Def Con from 1.23148e-006 ++++++++++++++to 1.23148e-006
Heightened Def Con from 1.23148e-006 ++++++++++++++to 1.23148e-006
Heightened Def Con from 1.23148e-006 ++++++++++++++to 1.23148e-006
Heightened Def Con from 1.23148e-006 ++++++++++++++to 1.23148e-006
Heightened Def Con from 1.23148e-006 +++++++++++++++to 1.23148e-006
Heightened Def Con from 1.23148e-006 +++++++++++++++to 1.23148e-006
Heightened Def Con from 1.23148e-006 +++++++++++++++to 1.23148e-006
Heightened Def Con from 1.23148e-006 +++++++++++++++to 1.23148e-006
Heightened Def Con from 1.23148e-006 +++++++++++++++to 1.23148e-006
Heightened Def Con from 1.23148e-006 +++++++++++++++to 1.23148e-006
Heightened Def Con from 1.23148e-006 +++++++++++++++to 1.23148e-006
Heightened Def Con from 1.23148e-006 +++++++++++++++to 1.23148e-006
Heightened Def Con from 1.23148e-006 +++++++++++++++to 1.23148e-006
Heightened Def Con from 1.23148e-006 +++++++++++++++to 1.23148e-006
Heightened Def Con from 1.23148e-006 +++++++++++++++to 1.23148e-006
Heightened Def Con from 1.23148e-006 +++++++++++++++to 1.23148e-006
Heightened Def Con from 1.23148e-006 +++++++++++++++to 1.23148e-006
Heightened Def Con from 1.23148e-006 +++++++++++++++to 1.23148e-006
Heightened Def Con from 1.23148e-006 +++++++++++++++to 1.23148e-006
Heightened Def Con from 1.23148e-006 ++++++++++++++++to 1.23148e-006
Heightened Def Con from 1.23148e-006 ++++++++++++++++to 1.23148e-006
Heightened Def Con from 1.23148e-006 ++++++++++++++++to 1.23148e-006
Heightened Def Con from 1.23148e-006 ++++++++++++++++to 1.23148e-006
Heightened Def Con from 1.23148e-006 ++++++++++++++++to 1.23148e-006
Heightened Def Con from 1.23148e-006 ++++++++++++++++to 1.23148e-006
Heightened Def Con from 1.23148e-006 ++++++++++++++++to 1.23148e-006
Heightened Def Con from 1.23148e-006 ++++++++++++++++to 1.23148e-006
Heightened Def Con from 1.23148e-006 ++++++++++++++++to 1.23148e-006
Heightened Def Con from 1.23148e-006 ++++++++++++++++to 1.23148e-006
Heightened Def Con from 1.23148e-006 ++++++++++++++++to 1.23148e-006
Heightened Def Con from 1.23148e-006 +++++++++++++++++to 1.23148e-006
Heightened Def Con from 1.23148e-006 +++++++++++++++++to 1.23148e-006
Heightened Def Con from 1.23148e-006 +++++++++++++++++to 1.23148e-006
Heightened Def Con from 1.23148e-006 +++++++++++++++++to 1.23148e-006
Heightened Def Con from 1.23148e-006 +++++++++++++++++to 1.23148e-006
Heightened Def Con from 1.23148e-006 +++++++++++++++++to 1.23148e-006
Heightened Def Con from 1.23148e-006 +++++++++++++++++to 1.23148e-006
Heightened Def Con from 1.23148e-006 +++++++++++++++++to 1.23148e-006
Heightened Def Con from 1.23148e-006 ++++++++++++++++++to 1.23148e-006
Heightened Def Con from 1.23148e-006 ++++++++++++++++++to 1.23148e-006
Heightened Def Con from 1.23148e-006 ++++++++++++++++++to 1.23148e-006
Heightened Def Con from 1.23148e-006 ++++++++++++++++++to 1.23148e-006
Heightened Def Con from 1.23148e-006 ++++++++++++++++++to 1.23148e-006
Heightened Def Con from 1.23148e-006 ++++++++++++++++++to 1.23148e-006
Heightened Def Con from 1.23148e-006 ++++++++++++++++++to 1.23148e-006
Heightened Def Con from 1.23148e-006 ++++++++++++++++++to 1.23148e-006
Heightened Def Con from 1.23148e-006 ++++++++++++++++++to 1.23148e-006
Heightened Def Con from 1.23148e-006 ++++++++++++++++++to 1.23148e-006
Heightened Def Con from 1.23148e-006 ++++++++++++++++++to 1.23148e-006
Heightened Def Con from 1.23148e-006 ++++++++++++++++++to 1.23148e-006
Heightened Def Con from 1.23148e-006 ++++++++++++++++++to 1.23148e-006
Heightened Def Con from 1.23148e-006 ++++++++++++++++++to 1.23148e-006
Heightened Def Con from 1.23148e-006 ++++++++++++++++++to 1.23148e-006
Heightened Def Con from 1.23148e-006 ++++++++++++++++++to 1.23148e-006
Heightened Def Con from 1.23148e-006 ++++++++++++++++++to 1.23148e-006
Heightened Def Con from 1.23148e-006 ++++++++++++++++++to 1.23148e-006
Heightened Def Con from 1.23148e-006 ++++++++++++++++++to 1.23148e-006
Heightened Def Con from 1.23148e-006 +++++++++++++++++++to 1.23148e-006
Heightened Def Con from 1.23148e-006 +++++++++++++++++++to 1.23148e-006
Heightened Def Con from 1.23148e-006 +++++++++++++++++++to 1.23148e-006
Heightened Def Con from 1.23148e-006 +++++++++++++++++++to 1.23148e-006
Heightened Def Con from 1.23148e-006 +++++++++++++++++++to 1.23148e-006
Heightened Def Con from 1.23148e-006 +++++++++++++++++++to 1.23148e-006
Heightened Def Con from 1.23148e-006 +++++++++++++++++++to 1.23148e-006
Heightened Def Con from 1.23148e-006 +++++++++++++++++++to 1.23148e-006
Heightened Def Con from 1.23148e-006 +++++++++++++++++++to 1.23148e-006
Heightened Def Con from 1.23148e-006 +++++++++++++++++++to 1.23148e-006
Heightened Def Con from 1.23148e-006 +++++++++++++++++++to 1.23148e-006
Heightened Def Con from 1.23148e-006 +++++++++++++++++++to 1.23148e-006
Heightened Def Con from 1.23148e-006 +++++++++++++++++++to 1.23148e-006
Heightened Def Con from 1.23148e-006 +++++++++++++++++++to 1.23148e-006
Heightened Def Con from 1.23148e-006 +++++++++++++++++++to 1.23148e-006
Heightened Def Con from 1.23148e-006 +++++++++++++++++++to 1.23148e-006
Heightened Def Con from 1.23148e-006 ++++++++++++++++++++to 1.23148e-006
Heightened Def Con from 1.23148e-006 ++++++++++++++++++++to 1.23148e-006
Heightened Def Con from 1.23148e-006 ++++++++++++++++++++to 1.23148e-006
Heightened Def Con from 1.23148e-006 ++++++++++++++++++++to 1.23148e-006
Heightened Def Con from 1.23148e-006 ++++++++++++++++++++to 1.23148e-006
Heightened Def Con from 1.23148e-006 ++++++++++++++++++++to 1.23148e-006
Heightened Def Con from 1.23148e-006 ++++++++++++++++++++to 1.23148e-006
Heightened Def Con from 1.23148e-006 ++++++++++++++++++++to 1.23148e-006
Heightened Def Con from 1.23148e-006 ++++++++++++++++++++to 1.23148e-006
Heightened Def Con from 1.23148e-006 +++++++++++++++++++++to 1.23149e-006
Heightened Def Con from 1.23149e-006 +++++++++++++++++++++to 1.23149e-006
Heightened Def Con from 1.23149e-006 +++++++++++++++++++++to 1.23149e-006
Heightened Def Con from 1.23149e-006 +++++++++++++++++++++to 1.23149e-006
Heightened Def Con from 1.23149e-006 +++++++++++++++++++++to 1.23149e-006
Heightened Def Con from 1.23149e-006 +++++++++++++++++++++to 1.23149e-006
Heightened Def Con from 1.23149e-006 +++++++++++++++++++++to 1.23149e-006
Heightened Def Con from 1.23149e-006 +++++++++++++++++++++to 1.23149e-006
Heightened Def Con from 1.23149e-006 +++++++++++++++++++++to 1.23149e-006
Heightened Def Con from 1.23149e-006 +++++++++++++++++++++to 1.23149e-006
Heightened Def Con from 1.23149e-006 +++++++++++++++++++++to 1.23149e-006
Heightened Def Con from 1.23149e-006 +++++++++++++++++++++to 1.23149e-006
Heightened Def Con from 1.23149e-006 +++++++++++++++++++++to 1.23149e-006
Heightened Def Con from 1.23149e-006 +++++++++++++++++++++to 1.23149e-006
Heightened Def Con from 1.23149e-006 +++++++++++++++++++++to 1.23149e-006
Heightened Def Con from 1.23149e-006 +++++++++++++++++++++to 1.23149e-006
Heightened Def Con from 1.23149e-006 +++++++++++++++++++++to 1.23149e-006
Heightened Def Con from 1.23149e-006 +++++++++++++++++++++to 1.23149e-006
Heightened Def Con from 1.23149e-006 ++++++++++++to 1.23149e-006

Date: Tue Jan 31 08:12:43 2023
Total elapsed time: 5.684 seconds.

tnom = 27
temp = 27
method = modified trap
totiter = 1552203
traniter = 277674
tranpoints = 25576
accept = 2800
rejected = 57214
matrix size = 57
fillins = 24
solver = Normal
Matrix Compiler1: 5.25 KB object code size  0.8/0.4/[0.3]
Matrix Compiler2: 5.17 KB object code size  0.4/0.6/[0.2]

