Circuit: * H:\D5\Interface\1\Ltspice\10AC to 3.3DC.asc

WARNING: Less than two connections to node N003.  This node is used by R2.
.OP point found by inspection.

Date: Tue Feb 14 19:22:42 2023
Total elapsed time: 0.182 seconds.

tnom = 27
temp = 27
method = modified trap
totiter = 2098
traniter = 2098
tranpoints = 1046
accept = 1044
rejected = 2
matrix size = 11
fillins = 0
solver = Normal
Matrix Compiler1: 690 bytes object code size  0.1/0.1/[0.1]
Matrix Compiler2: 861 bytes object code size  0.1/0.1/[0.1]

