Circuit: * J:\Ltspice\10AC to 3.3DC Version 1(busbar voltage).asc

Warning: Multiple definitions of model "2scr375p" Type: BJT
Warning: Multiple definitions of model "bc857b" Type: BJT
Warning: Multiple definitions of model "bc847c" Type: BJT
Warning: Multiple definitions of model "bc847b" Type: BJT
Warning: Multiple definitions of model "1n4148" Type: Diode
WARNING: Less than two connections to node n003.  This node is used by r2.
.OP point found by inspection.

Date: Thu Feb 16 16:02:07 2023
Total elapsed time: 0.438 seconds.

tnom = 27
temp = 27
method = modified trap
totiter = 194491
traniter = 194491
tranpoints = 65281
accept = 45930
rejected = 19351
matrix size = 11
fillins = 0
solver = Normal
Avg thread counts: 1.0/1.0/1.0/1.0
Matrix Compiler1:      39 opcodes  0.2/[0.1]/0.2
Matrix Compiler2: 861 bytes object code size  0.1/0.1/[0.1]

