Circuit: * H:\D5\Interface\1\Ltspice\4AC to 3.3DC third version.asc

Warning: Multiple definitions of model "1n4148" Type: Diode
Direct Newton iteration for .op point succeeded.

Date: Tue Feb 14 23:53:15 2023
Total elapsed time: 0.128 seconds.

tnom = 27
temp = 27
method = modified trap
totiter = 4475
traniter = 4452
tranpoints = 1708
accept = 1488
rejected = 220
matrix size = 42
fillins = 38
solver = Normal
Matrix Compiler1: 3.32 KB object code size  0.5/0.3/[0.2]
Matrix Compiler2: 3.68 KB object code size  0.3/0.3/[0.3]

