Circuit: * H:\D5\Interface\1\Ltspice\4ACto3.3DC(basbar voltage).asc

.OP point found by inspection.

Date: Tue Feb 14 19:21:11 2023
Total elapsed time: 7.265 seconds.

tnom = 27
temp = 27
method = modified trap
totiter = 5443368
traniter = 5443368
tranpoints = 1887116
accept = 1302154
rejected = 584962
matrix size = 4
fillins = 0
solver = Normal
Matrix Compiler1: 100 bytes object code size  0.0/0.1/[0.0]
Matrix Compiler2: 248 bytes object code size  0.0/0.0/[0.0]

