Circuit: * H:\D5\Interface\1\Ltspice\4ACto3.3DC(basbar voltage) Version 1.asc

Warning: Multiple definitions of model "1n4148" Type: Diode
.OP point found by inspection.

Date: Tue Feb 14 23:53:47 2023
Total elapsed time: 4.948 seconds.

tnom = 27
temp = 27
method = modified trap
totiter = 4951498
traniter = 4951498
tranpoints = 2000083
accept = 1200095
rejected = 799988
matrix size = 4
fillins = 0
solver = Normal
Matrix Compiler1: 100 bytes object code size  0.1/0.0/[0.0]
Matrix Compiler2: off  [0.0]/0.0/0.0

