Circuit: * H:\D5\Interface\1\Ltspice\5dc to 3.6dc.asc

Direct Newton iteration for .op point succeeded.

Date: Tue Feb 14 22:07:35 2023
Total elapsed time: 0.072 seconds.

tnom = 27
temp = 27
method = modified trap
totiter = 2842
traniter = 2829
tranpoints = 1329
accept = 1278
rejected = 51
matrix size = 40
fillins = 44
solver = Normal
Matrix Compiler1: 3.63 KB object code size  0.5/0.3/[0.1]
Matrix Compiler2: 3.69 KB object code size  0.2/0.3/[0.2]

