Circuit: * H:\D5\Interface\FInal\Ltspice\5V digital to 3.3dc.asc

Direct Newton iteration for .op point succeeded.

Date: Thu Feb 16 02:55:19 2023
Total elapsed time: 0.088 seconds.

tnom = 27
temp = 27
method = modified trap
totiter = 2806
traniter = 2792
tranpoints = 1313
accept = 1270
rejected = 43
matrix size = 40
fillins = 44
solver = Normal
Matrix Compiler1: 3.63 KB object code size  0.5/0.3/[0.1]
Matrix Compiler2: 3.69 KB object code size  0.2/0.3/[0.2]

