
**** 02/28/23 23:46:55 ******* PSpice 17.4.0 (Nov 2018) ******* ID# 0 ********

 ** Profile: "SCHEMATIC1-300n"  [ d:\users\mbt0c\onedrive\dokumente\southampton\part 2\d5\d5 psu\smps-pspicefiles\schematic1\300n.sim


 ****     CIRCUIT DESCRIPTION


******************************************************************************




** Creating circuit file "300n.cir" 
** WARNING: THIS AUTOMATICALLY GENERATED FILE MAY BE OVERWRITTEN BY SUBSEQUENT SIMULATIONS

*Libraries: 
* Profile Libraries :
* Local Libraries :
.LIB "../../../smps-pspicefiles/smps.lib" 
.LIB "../../../3rd party spice models/simulation_model_coolmos_p7_mosfet_700v_spice.lib" 
.LIB "../../../3rd party spice models/ucc24650_netlist.lib" 
.LIB "../../../3rd party spice models/ucc28730_netlist.lib" 
.LIB "../../../3rd party spice models/st_field_effect_ rectifier_v7.lib" 
.LIB "../../../3rd party spice models/we-fb.lib" 
.LIB "../../../transformer.lib" 
.LIB "../../../3rd party spice models/stn9360.lib" 
* From [PSPICE NETLIST] section of C:\SPB_DATA\cdssetup\OrCAD_PSpice\17.4.0\PSpice.ini file:
.lib "nom.lib" 

*Analysis directives: 
.TRAN  0 10 9.9 25n SKIPBP 
.OPTIONS PREORDER
.OPTIONS ADVCONV
.OPTIONS LIMIT= 1e10
.AUTOCONVERGE ITL1=1000 ITL2=1000 ITL4=1000 RELTOL=0.05 ABSTOL=1.0E-6 VNTOL=.001 PIVTOL=1.0E-10 
.PROBE64 V(alias(*)) I(alias(*)) W(alias(*)) 
.INC "..\SCHEMATIC1.net" 



**** INCLUDING SCHEMATIC1.net ****
* source SMPS
X_D4         N13710 N13691 power_diode_p PARAMS: I_REV_LEAK=0.004m
+  CT_ZERO_VOLTS=300p V_BR=100 VJ_KNEE=0.4 VJ_SPEC=0.6 IF_SPEC=10
V_V2         N16440 0   PWL    
+ 0 0 5m 25  
R_R4         N13413 N11065  5k TC=0,0 
X_D1         N13727 N105251 power_diode_p PARAMS: I_REV_LEAK=1e-5
+  CT_ZERO_VOLTS=300p V_BR=600 VJ_KNEE=0.9 VJ_SPEC=1.6 IF_SPEC=6
R_R8         N13710 N13691  100 TC=0,0 
C_C1         N11041 0  300u  TC=0,0 
R_R6         0 N14358  1G TC=0,0 
D_D7         N15388 N15448 Dbreak 
R_R3         0 N11065  0.821 TC=0,0 
X_D6         N14522 N15448 Zener PARAMS: VZT=150 TCBV=150 
R_R5         N14973 N105251  22 TC=0,0 
X_U4         0 N11041 Sw_tClose PARAMS: tClose=15m ttran=1u Rclosed=207.36
+  Ropen=1Meg
X_D8          0 0 N10823 FERD20S100SB-TR
C_C2         0 N14973  8.2u  TC=0,0 
X_D2         N16440 N14973 power_diode_p PARAMS: I_REV_LEAK=1e-5
+  CT_ZERO_VOLTS=300p V_BR=600 VJ_KNEE=0.9 VJ_SPEC=1.6 IF_SPEC=6
X_U5          N13413 N14522 N13830 N14358 N14973 N13710 0 UCC28730_netlist
X_U6          N10823 N11041 0 0 0 UCC24650
X_U7          N15388 N13691 N11065 IPN70R1K2P7S_L1 PARAMS: dRdson=0 dVth=0
X_T1          N14522 N13497 N13497 N15388 0 N13727 N10823 N11041 N10823 N11041
+  N10823 N11041 FB_EFD25_750311771
R_R12         N13727 N13830  71.5k TC=0,0 
R_R1         N13830 0  27.4k TC=0,0 
X_D9         N27965 N28045 0 N28041 awbvbo13_04n01 PARAMS:              
C_C3         0 N14522  0.22u  TC=0,0 
V_V3         N28041 N28045 DC 0 AC 0
+SIN 0 327 50 0 0 0
R_R13         0 N14522  6Meg TC=0,0 
C_C4         0 N27965  0.15u  TC=0,0 
L_L1         N27965 N14522  470u  

**** RESUMING 300n.cir ****
.END

**** 02/28/23 23:46:55 ******* PSpice 17.4.0 (Nov 2018) ******* ID# 0 ********

 ** Profile: "SCHEMATIC1-300n"  [ d:\users\mbt0c\onedrive\dokumente\southampton\part 2\d5\d5 psu\smps-pspicefiles\schematic1\300n.sim


 ****     Diode MODEL PARAMETERS


******************************************************************************




               Dbreak          X_D4.D1exp      X_D1.D1exp      X_D8.dx         
          IS   10.000000E-15    4.000000E-06   10.000000E-06    8.163600E-06 
           N                                                    1.0339       
         ISR                                                  135.440000E-18 
          NR                                                    4.995        
         IKF                                                  770.09         
          BV                  100             600                            
          RS     .1              .02             .116667         .029687     
         CJO  100.000000E-15  300.000000E-12  300.000000E-12    4.884700E-09 
          VJ                                                    8.1791       
           M                                                   10            
          EG                                                     .423        
         XTI                                                    2            


               X_D2.D1exp      
          IS   10.000000E-06 
          BV  600            
          RS     .116667     
         CJO  300.000000E-12 


**** 02/28/23 23:46:55 ******* PSpice 17.4.0 (Nov 2018) ******* ID# 0 ********

 ** Profile: "SCHEMATIC1-300n"  [ d:\users\mbt0c\onedrive\dokumente\southampton\part 2\d5\d5 psu\smps-pspicefiles\schematic1\300n.sim


 ****     Voltage Controlled Switch MODEL PARAMETERS


******************************************************************************




               X_U4.Smod       
         RON  207.36         
        ROFF    1.000000E+06 
         VON    1            
        VOFF    0            

Time step =  4.426E-12 is too small in Transient Analysis at
Time =  254.4E-12.  Minimum allowable step size =  4.426E-12.
         The device which is changing too fast is X_U5.X_U2_U3.X_U_SAMPLER_D86.d1.



  Last node voltages tried were:

 NODE   VOLTAGE     NODE   VOLTAGE     NODE   VOLTAGE     NODE   VOLTAGE


(N10823)    -.0019 (N11041) 19.68E-09 (N11065) 1.952E-06 (N13413) 1.952E-06     

(N13497) 9.535E-06 (N13691) 8.768E-06 (N13710)     .0496 (N13727)     .0064     

(N13830)     .0018 (N14358)    0.0000 (N14522)-3.233E-09 (N14973)-16.82E-06     

(N15388) 18.87E-06 (N15448) 18.52E-06 (N16440) 1.250E-06 (N27965) 561.4E-15     

(N28041) 12.84E-06 (N28045)-12.84E-06 (X_U4.3)    0.0000 (X_U7.g) 11.89E-06     

(X_U7.s) 12.08E-06 (X_U7.w)-54.00E-18 (N105251)    -.5210                       

(X_D8.12)-1.183E-09                   (X_T1.1a)    -.0066                       

(X_T1.1b) 10.25E-06                   (X_T1.1c) 9.531E-06                       

(X_T1.2a)    -.0066                   (X_T1.2b) 19.59E-06                       

(X_T1.2c) 18.87E-06                   (X_T1.5a)     .0022                       

(X_U7.dd) 15.13E-06                   (X_U7.Tj)   27.0000                       

(X_T1.10a) 315.5E-06                  (X_T1.11a) 315.5E-06                      

(X_T1.12a) 315.5E-06                  (X_D1.np_1)    -.5436                     

(X_D2.np_1)    -.5500                 (X_D4.np_1)-414.7E-06                     

(X_U7.ldrd) 15.13E-06                 (X_U7.lgrg) 11.15E-06                     

(X_U7.lsrs) 12.06E-06                 (X_U7.X1.d) 12.31E-06                     

(X_U5.U2_B0)    1.0000                (X_U5.U2_EN)    0.0000                    

(X_U5.U2_HI)    5.0000                (X_U5.U2_NC)    0.0000                    

(X_U5.U2_V4) 792.1E-06                (X_U5.U2_V5) 500.0E-06                    

(X_U5.U2_VC)     .0038                (X_U7.X1.d1) 12.31E-06                    

(X_U7.X1.d2) 15.13E-06                (X_U7.X1.ox) 12.31E-06                    

(X_U5.U2_VOH)    0.0000               (X_U7.X1.dio) 15.13E-06                   

(X_U7.X1.ox2) 12.31E-06               (X_U5.N755070)     .2729                  

(X_U5.N755412)    -.0820              (X_U5.U2_LOWF)    0.0000                  

(X_U5.U2_MINP)    0.0000              (X_U5.U2_V4P6) 616.8E-06                  

(X_U5.U2_VCX5)    1.2500              (X_U5.U2_WAIT)    0.0000                  

(X_U5.U2_WAKE)    0.0000              (X_U5.U2_ZCUR)    0.0000                  

(X_U7.X1.dio2) 15.13E-06              (X_U5.U2_CS_SH) 1.952E-06                 

(X_U5.U2_EN_WZ)    0.0000             (X_U5.U2_HV_SH)-3.233E-09                 

(X_U5.U2_VS_SH)     .0018             (X_U7.X1.edep1) 248.3E-06                 

(X_U7.X1.edep2) 12.31E-06             (X_U5.N16763909)     .2000                

(X_U5.N16766563)     .2000            (X_U5.U2_EN_DLY)     .2000                

(X_U5.U2_VDD_SH)-16.82E-06            (X_U5.U2_WAKE_L)    0.0000                

(X_U6.N16762655)     .2000            (X_U6.N16763696)    0.0000                

(X_U6.N16769865)     .2000            (X_U6.N16778455)     .2000                

(X_U5.U2_LOW_PWR)    0.0000           (X_U5.U2_N754290) 840.0E-06               

(X_U5.U2_N754894) 840.0E-06           (X_U5.U2_N754980)     .2000               

(X_U5.U2_N755302) 500.0E-06           (X_U5.U2_N755324)-674.6E-09               

(X_U5.U2_N755514)    0.0000           (X_U5.U2_N755600)     .0356               

(X_U5.U2_N755616)    2.5618           (X_U5.U2_N755624)-16.80E-06               

(X_U5.U2_N755760)    0.0000           (X_U5.U2_N785896)-16.15E-06               

(X_U5.U2_WAIT_EX)     .2000           (X_U5.U2_FAULT_CS)    0.0000              

(X_U5.U2_FAULT_LL)     .2000          (X_U5.U2_FAULT_OC)    0.0000              

(X_U5.U2_FAULT_OV)    0.0000          (X_U5.U2_U_WUM_HI)    5.0000              

(X_U5.U2_TDM_START)    0.0000         (X_U5.U2_ZCD_FIRST)    0.0000             

(X_U5.X_U2_U1.YINT)    0.0000         (X_U5.X_U2_U2.YINT)    1.0000             

(X_U6.U_wakeup_PCD)    0.0000         (X_U6.U_wakeup_TRD)    0.0000             

(X_U5.U2_LEAVE_FLOAT)    3.7500       (X_U5.X_U2_U7.N00102)     .2000           

(X_U5.X_U2_U3.N259805)     .2000      (X_U5.X_U2_U3.N261463)     .2000          

(X_U5.X_U2_U5.N408411)     .2000      (X_U5.X_U2_U5.N408528)     .2000          

(X_U5.X_U2_U5.N408655)     .2000      (X_U5.X_U2_U5.N408791)     .2000          

(X_U5.X_U2_U5.N408936)     .2000      (X_U5.X_U2_U5.N424988)     .2000          

(X_U5.X_U2_U6.N368302)     .2000      (X_U5.X_U2_U6.N369236)    0.0000          

(X_U5.X_U2_U6.N369354)     .2000      (X_U6.U_wakeup_EN_DLY)    0.0000          

(X_U5.U2_U_EMI_N458297)     .0288     (X_U5.U2_U_EMI_N458527)     .0035         

(X_U5.U2_U_EMI_N458537)     .0037     (X_U5.U2_U_EMI_N458545)     .0163         

(X_U5.X_U2_U3.N16937308)     .2000    (X_U5.X_U2_U3.N17037951)    0.0000        

(X_U5.X_U2_U4.N16778373)    0.0000    (X_U5.X_U2_U4.N16782446)     .2000        

(X_U5.X_U2_U4.N16793221)     .2000    (X_U5.X_U2_U4.N16793240)     .2000        

(X_U5.X_U2_U5.N16778398)    0.0000    (X_U5.X_U2_U5.N16778834)     .2000        

(X_U5.X_U2_U5.N16778978)    0.0000    (X_U5.X_U2_U5.N16779692)     .2000        

(X_U5.X_U2_U5.N16779700)     .2000    (X_U5.X_U2_U5.N16779776)     .2000        

(X_U5.X_U2_U5.N16779782)     .2000    (X_U5.X_U2_U5.N16794628)     .2000        

(X_U5.X_U2_U5.U_MOD1_B0)    0.0000    (X_U6.U_wakeup_U_TRD_HI)     .2000        

(X_U5.U2_U_WUM_N16760864)    0.0000   (X_U5.U2_U_WUM_N16760880)    0.0000       

(X_U5.U2_U_WUM_N16760981) 25.00E-06   (X_U5.U2_U_WUM_N16761403)    1.0000       

(X_U5.U2_U_WUM_N16761860)    0.0000   (X_U5.U2_U_WUM_N16761888)     .2000       

(X_U5.U2_U_WUM_N16762502)    0.0000   (X_U5.U2_U_WUM_N16762798)    0.0000       

(X_U5.U2_U_WUM_N16763095)     .0500   (X_U5.U2_U_WUM_N16763370)     .2000       

(X_U5.U2_U_WUM_N16763801)    0.0000   (X_U5.U2_U_WUM_N16766451)    0.0000       

(X_U5.U2_U_WUM_N16766511)    2.0000   (X_U5.U2_U_WUM_N16766523)     .2000       

(X_U5.U2_U_WUM_N16766559)    0.0000   (X_U5.U2_U_WUM_N16766727)    0.0000       

(X_U5.U2_U_WUM_N16766735)    0.0000   (X_U5.U2_U_WUM_N16766745) 25.00E-06       

(X_U5.U2_U_WUM_N16766909)    1.0000   (X_U5.U2_U_WUM_N16766997)    0.0000       

(X_U5.U2_U_WUM_N16767005)    0.0000   (X_U5.X_U2_U4.CNTLLAW_HI)    5.0000       

(X_U5.X_U2_U4.CNTLLAW_Q1)    0.0000   (X_U5.X_U2_U4.CNTLLAW_Q2)    0.0000       

(X_U5.X_U2_U4.CNTLLAW_Q3)    0.0000   (X_U5.X_U2_U4.CNTLLAW_Q4)    0.0000       

(X_U5.X_U2_U5.U_MOD1_ENZ)     .2000   (X_U5.X_U2_U7.U_CCT_VLIM)    3.2073       

(X_U5.X_U2_U_WUM_U33.MY5)    1.0000   (X_U5.X_U2_U_WUM_U33.Qbr)    1.0000       

(X_U5.X_U2_U_WUM_U33.Qqq) 260.3E-15   (X_U5.X_U2_U_WUM_U34.MY5)    1.0000       

(X_U5.X_U2_U_WUM_U34.Qbr)    1.0000   (X_U5.X_U2_U_WUM_U34.Qqq) 260.3E-15       

(X_U5.X_U2_U_WUM_U61.MY5)    1.0000   (X_U5.X_U2_U_WUM_U61.Qbr)    1.0000       

(X_U5.X_U2_U_WUM_U61.Qqq) 260.3E-15   (X_U5.X_U2_U_WUM_U62.MY5)    1.0000       

(X_U5.X_U2_U_WUM_U62.Qbr)    1.0000   (X_U5.X_U2_U_WUM_U62.Qqq) 260.3E-15       

(X_U5.X_U2_U_WUM_U9.YINT)    0.0000   (X_U6.U_wakeup_N16760806)    0.0000       

(X_U6.U_wakeup_N16761121)-1.564E-09   (X_U6.U_wakeup_U_PCD_ENZ)     .2000       

(X_U6.U_wakeup_U_TRD_LOW)    0.0000   (X_D6.XinstMyZenerModel.1) -150.0000      

(X_D6.XinstMyZenerModel.3)  150.0000  (X_D6.XinstMyZenerModel.9)-3.234E-09      

(X_U5.X_U2_U3.U_SAMPLER_W)    0.0000  (X_U5.X_U2_U4.CNTLLAW_B0Z)    0.0000      

(X_U5.X_U2_U5.U_MOD1_DR_Z)     .2000  (X_U5.X_U2_U7.U_CCT_VOH_Z)     .2000      

(X_U5.X_U2_U_WUM_U13.YINT)    1.0000  (X_U5.X_U2_U_WUM_U28.YINT)    0.0000      

(X_U5.X_U2_U_WUM_U29.YINT)    0.0000  (X_U5.X_U2_U_WUM_U30.YINT)    0.0000      

(X_U5.X_U2_U_WUM_U31.YINT)    0.0000  (X_U5.X_U2_U_WUM_U32.YINT)    0.0000      

(X_U5.X_U2_U_WUM_U33.Qint) 260.3E-15  (X_U5.X_U2_U_WUM_U34.Qint) 260.3E-15      

(X_U5.X_U2_U_WUM_U57.Yint)    0.0000  (X_U5.X_U2_U_WUM_U58.Yint)    0.0000      

(X_U5.X_U2_U_WUM_U59.Yint)    0.0000  (X_U5.X_U2_U_WUM_U60.Yint)    0.0000      

(X_U5.X_U2_U_WUM_U61.Qint) 260.3E-15  (X_U5.X_U2_U_WUM_U62.Qint) 260.3E-15      

(X_U5.X_U2_U3.U_SAMPLER_M0)    3.7500 (X_U5.X_U2_U3.U_SAMPLER_N0)     .7000     

(X_U5.X_U2_U3.U_SAMPLER_N1)    1.5990 (X_U5.X_U2_U3.U_SAMPLER_N2)    2.4721     

(X_U5.X_U2_U3.U_SAMPLER_N3)    1.6003 (X_U5.X_U2_U3.U_SAMPLER_N4)    1.6000     

(X_U5.X_U2_U3.U_SAMPLER_N5)     .7274 (X_U5.X_U2_U3.U_SAMPLER_N6)    1.4051     

(X_U5.X_U2_U3.U_SAMPLER_N7)    1.7600 (X_U5.X_U2_U3.U_SAMPLER_WE)    0.0000     

(X_U5.X_U2_U3.U_SAMPLER_WZ)     .2000 (X_U5.X_U2_U4.CNTLLAW_NAX1)     .2000     

(X_U5.X_U2_U4.CNTLLAW_NAX2)     .2000 (X_U5.X_U2_U4.CNTLLAW_NN_0)    0.0000     

(X_U5.X_U2_U4.CNTLLAW_NN_2)    0.0000 (X_U5.X_U2_U4.CNTLLAW_VOHZ)     .2000     

(X_U5.X_U2_U5.U_MOD1_NUQ_0)    0.0000 (X_U5.X_U2_U6.U_PM_N368222)    0.0000     

(X_U5.X_U2_U6.U_PM_N368230)     .2000 (X_U5.X_U2_U6.U_PM_N368270) 33.52E-06     

(X_U5.X_U2_U6.U_PM_N368346) 33.52E-06 (X_U5.X_U2_U6.U_PM_N368526)-109.2E-06     

(X_U5.X_U2_U6.U_PM_N368582)     .2000 (X_U5.X_U2_U6.U_PM_N368610)     .2000     

(X_U5.X_U2_U6.U_PM_N368708)    0.0000 (X_U5.X_U2_U6.U_PM_N368790)    0.0000     

(X_U5.X_U2_U6.U_PM_N368794)    0.0000 (X_U5.X_U2_U6.U_PM_N368844)    0.0000     

(X_U5.X_U2_U6.U_PM_N369224)     .2000 (X_U5.X_U2_U6.U_PM_N369288)    0.0000     

(X_U5.X_U2_U6.U_PM_N369326)    0.0000 (X_U5.X_U2_U6.U_PM_N369358)    0.0000     

(X_U5.X_U2_U6.U_PM_N369410)    0.0000 (X_U5.X_U2_U6.U_PM_N369538)    5.0000     

(X_U5.X_U2_U6.U_PM_N370932) 500.0E-06 (X_U5.X_U2_U6.U_PM_N370968) 500.0E-06     

(X_U5.X_U2_U6.U_PM_N370976) 500.0E-06 (X_U5.X_U2_U6.U_PM_N371112)    0.0000     

(X_U5.X_U2_U6.U_PM_N371132)    4.5000 (X_U5.X_U2_U6.U_PM_N371178) 500.0E-06     

(X_U5.X_U2_U6.U_PM_N371458)     .2000 (X_U5.X_U2_U6.U_PM_N511457)  -21.0000     

(X_U5.X_U2_U6.U_PM_N523366)    0.0000 (X_U5.X_U2_U6.U_PM_N523374)    0.0000     

(X_U5.X_U2_U6.U_PM_N523524)     .2000 (X_U5.X_U2_U7.U_CCT_N00094)     .2000     

(X_U5.X_U2_U7.U_CCT_N00128)     .2000 (X_U5.X_U2_U7.U_CCT_N00219)    0.0000     

(X_U5.X_U2_U7.U_CCT_N00564)     .2000 (X_U5.X_U2_U7.U_CCT_N00720)     .2000     

(X_U5.X_U2_U_WUM_U33.MYVSS)    0.0000 (X_U5.X_U2_U_WUM_U33.Qqqd1)    0.0000     

(X_U5.X_U2_U_WUM_U34.MYVSS)    0.0000 (X_U5.X_U2_U_WUM_U34.Qqqd1)    0.0000     

(X_U5.X_U2_U_WUM_U61.MYVSS)    0.0000 (X_U5.X_U2_U_WUM_U61.Qqqd1)    0.0000     

(X_U5.X_U2_U_WUM_U62.MYVSS)    0.0000 (X_U5.X_U2_U_WUM_U62.Qqqd1)    0.0000     

(X_U5.X_U2_U3.U_SAMPLER_ENB)     .2000                                          

(X_U5.X_U2_U3.U_SAMPLER_WEZ)     .2000                                          

(X_U5.X_U2_U5.U_MOD1_VS_NEG)    0.0000                                          

(X_U5.X_U2_U7.U_CCT_N383233)    3.4679                                          

(X_U5.X_U2_U7.U_CCT_N383463)    3.4680                                          

(X_U5.X_U2_U7.U_CCT_N386967)    0.0000                                          

(X_U5.X_U2_U7.U_CCT_N404902)     .2000                                          

(X_U5.X_U2_U7.U_CCT_N406220)    5.0000                                          

(X_U5.X_U2_U7.U_CCT_N418491)     .2000                                          

(X_U5.X_U2_U7.U_CCT_N419295)    0.0000                                          

(X_U5.X_U2_U7.U_CCT_N431501)    4.0000                                          

(X_U5.X_U2_U_WUM_U33.CLKdel)     .2000                                          

(X_U5.X_U2_U_WUM_U33.CLKint)    0.0000                                          

(X_U5.X_U2_U_WUM_U34.CLKdel)     .2000                                          

(X_U5.X_U2_U_WUM_U34.CLKint)    0.0000                                          

(X_U6.U_wakeup_U_TRD_N00171) 2.460E-18                                          

(X_U6.U_wakeup_U_TRD_N00880)    0.0000                                          

(X_U6.U_wakeup_U_TRD_N01003) 19.68E-09                                          

(X_U6.U_wakeup_U_TRD_N01215)   -4.7940                                          

(X_U6.U_wakeup_U_TRD_N01277)    1.0000                                          

(X_U6.U_wakeup_U_TRD_N01453)     .9700                                          

(X_U6.U_wakeup_U_TRD_N01791)     .2000                                          

(X_U5.X_U2_U4.CNTLLAW_LOW_FZ)     .2000                                         

(X_U5.X_U2_U4.CNTLLAW_WAIT_Z)     .2000                                         

(X_U5.X_U2_U5.U_MOD1_N007271)    0.0000                                         

(X_U5.X_U2_U5.U_MOD1_N007711)    0.0000                                         

(X_U5.X_U2_U5.U_MOD1_N015071)     .2000                                         

(X_U5.X_U2_U5.U_MOD1_NO_SMPL)    0.0000                                         

(X_U5.X_U2_U5.U_MOD1_NXX_111)-26.03E-30                                         

(X_U5.X_U2_U5.U_MOD1_ON_EDGE)    0.0000                                         

(X_U5.X_U2_U6.U_PM_N16710938)    0.0000                                         

(X_U5.X_U2_U6.U_PM_N16716358)     .0671                                         

(X_U5.X_U2_U6.X_U_PM_U12.MY5)    1.0000                                         

(X_U5.X_U2_U6.X_U_PM_U12.Qbr)    1.0000                                         

(X_U5.X_U2_U6.X_U_PM_U12.Qqq) 260.3E-15                                         

(X_U5.X_U2_U6.X_U_PM_U14.MY5)    1.0000                                         

(X_U5.X_U2_U6.X_U_PM_U14.Qbr)    1.0000                                         

(X_U5.X_U2_U6.X_U_PM_U14.Qqq) 260.3E-15                                         

(X_U5.X_U2_U6.X_U_PM_U27.MY5)    1.0000                                         

(X_U5.X_U2_U6.X_U_PM_U27.Qbr)    1.0000                                         

(X_U5.X_U2_U6.X_U_PM_U27.Qqq) 260.3E-15                                         

(X_U5.X_U2_U6.X_U_PM_U29.MY5)    1.0000                                         

(X_U5.X_U2_U6.X_U_PM_U29.Qbr)    1.0000                                         

(X_U5.X_U2_U6.X_U_PM_U29.Qqq) 260.3E-15                                         

(X_U5.X_U2_U6.X_U_PM_U30.MY5)    1.0000                                         

(X_U5.X_U2_U6.X_U_PM_U30.Qbr)    1.0000                                         

(X_U5.X_U2_U6.X_U_PM_U30.Qqq) 260.3E-15                                         

(X_U5.X_U2_U6.X_U_PM_U6.YINT)    1.0000                                         

(X_U5.X_U2_U6.X_U_PM_U7.YINT)    1.0000                                         

(X_U5.X_U2_U6.X_U_PM_U9.YINT)    0.0000                                         

(X_U5.X_U2_U7.U_CCT_VOH_BUFF)    0.0000                                         

(X_U5.X_U2_U_WUM_U33.X2.YINT)    0.0000                                         

(X_U5.X_U2_U_WUM_U34.X2.YINT)    0.0000                                         

(X_U5.X_U2_U_WUM_U61.X3.YINT)    0.0000                                         

(X_U5.X_U2_U_WUM_U62.X3.YINT)    0.0000                                         

(X_U5.X_U2_U3.U_SAMPLER_ARMED)    0.0000                                        

(X_U5.X_U2_U3.U_SAMPLER_ZCURZ)     .2000                                        

(X_U5.X_U2_U4.CNTLLAW_ENZ_DLY)     .2000                                        

(X_U5.X_U2_U6.X_U_PM_U10.YINT)    0.0000                                        

(X_U5.X_U2_U6.X_U_PM_U11.YINT)    1.0000                                        

(X_U5.X_U2_U6.X_U_PM_U12.Qint) 260.3E-15                                        

(X_U5.X_U2_U6.X_U_PM_U13.YINT)    1.0000                                        

(X_U5.X_U2_U6.X_U_PM_U14.Qint) 260.3E-15                                        

(X_U5.X_U2_U6.X_U_PM_U15.YINT)    0.0000                                        

(X_U5.X_U2_U6.X_U_PM_U16.YINT)    0.0000                                        

(X_U5.X_U2_U6.X_U_PM_U27.Qint) 260.3E-15                                        

(X_U5.X_U2_U6.X_U_PM_U28.YINT)    0.0000                                        

(X_U5.X_U2_U6.X_U_PM_U29.Qint) 260.3E-15                                        

(X_U5.X_U2_U6.X_U_PM_U30.Qint) 260.3E-15                                        

(X_U5.X_U2_U6.X_U_PM_U31.YINT)    0.0000                                        

(X_U5.X_U2_U6.X_U_PM_U33.Yint)    0.0000                                        

(X_U5.X_U2_U6.X_U_PM_U34.Yint)    0.0000                                        

(X_U5.X_U2_U7.U_CCT_N16679329)    4.8600                                        

(X_U5.X_U2_U7.U_CCT_N16679519)-2606.4000                                        

(X_U5.X_U2_U7.U_CCT_N16681406)     .1400                                        

(X_U5.X_U2_U7.U_CCT_N16685522)    4.0680                                        

(X_U5.X_U2_U7.U_CCT_N16687813)    0.0000                                        

(X_U5.X_U2_U7.U_CCT_N16687973)     .2000                                        

(X_U5.X_U2_U7.U_CCT_N16708513)     .2000                                        

(X_U5.X_U2_U7.U_CCT_N16708577)    0.0000                                        

(X_U5.X_U2_U7.U_CCT_N16714918)    2.1250                                        

(X_U5.X_U2_U7.U_CCT_N16717213)    3.2500                                        

(X_U5.X_U2_U7.X_U_CCT_U12.MY5)    1.0000                                        

(X_U5.X_U2_U7.X_U_CCT_U12.Qbr)    1.0000                                        

(X_U5.X_U2_U7.X_U_CCT_U12.Qqq) 260.3E-15                                        

(X_U5.X_U2_U7.X_U_CCT_U32.MY5)    1.0000                                        

(X_U5.X_U2_U7.X_U_CCT_U32.Qbr)    1.0000                                        

(X_U5.X_U2_U7.X_U_CCT_U32.Qqq) 260.3E-15                                        

(X_U5.X_U2_U7.X_U_CCT_U6.YINT)    1.0000                                        

(X_U5.X_U2_U7.X_U_CCT_U7.YINT)    1.0000                                        

(X_U5.X_U2_U_WUM_U33.X1.YINT1)    0.0000                                        

(X_U5.X_U2_U_WUM_U33.X1.YINT2)    0.0000                                        

(X_U5.X_U2_U_WUM_U33.X1.YINT3)    1.0000                                        

(X_U5.X_U2_U_WUM_U33.X3.YINT1)    0.0000                                        

(X_U5.X_U2_U_WUM_U33.X3.YINT2)    0.0000                                        

(X_U5.X_U2_U_WUM_U33.X3.YINT3)    0.0000                                        

(X_U5.X_U2_U_WUM_U34.X1.YINT1)    0.0000                                        

(X_U5.X_U2_U_WUM_U34.X1.YINT2)    0.0000                                        

(X_U5.X_U2_U_WUM_U34.X1.YINT3)    1.0000                                        

(X_U5.X_U2_U_WUM_U34.X3.YINT1)    0.0000                                        

(X_U5.X_U2_U_WUM_U34.X3.YINT2)    0.0000                                        

(X_U5.X_U2_U_WUM_U34.X3.YINT3)    0.0000                                        

(X_U6.U_wakeup_U_TRD_EN_DLY_Z)     .2000                                        

(X_U6.X_U_wakeup_U_PCD_U62.ch)    0.0000                                        

(X_U6.X_U_wakeup_U_TRD_U62.ch)    0.0000                                        

(X_U5.X_U2_U4.CNTLLAW_NX_RESET)    0.0000                                       

(X_U5.X_U2_U5.U_MOD1_N16778420)-23.51E-12                                       

(X_U5.X_U2_U5.U_MOD1_N16778464)    0.0000                                       

(X_U5.X_U2_U5.U_MOD1_N16778468)     .2000                                       

(X_U5.X_U2_U5.U_MOD1_N16778483)    0.0000                                       

(X_U5.X_U2_U5.U_MOD1_N16778503)     .2000                                       

(X_U5.X_U2_U5.U_MOD1_N16778536)    0.0000                                       

(X_U5.X_U2_U5.U_MOD1_N16778544)     .2000                                       

(X_U5.X_U2_U5.U_MOD1_N16778558)    -.0553                                       

(X_U5.X_U2_U5.U_MOD1_N16778562)    -.0553                                       

(X_U5.X_U2_U5.U_MOD1_N16778647)     .2000                                       

(X_U5.X_U2_U5.U_MOD1_N16778649)    1.7341                                       

(X_U5.X_U2_U5.U_MOD1_N16778655)    2.1000                                       

(X_U5.X_U2_U5.U_MOD1_N16778659)     .7500                                       

(X_U5.X_U2_U5.U_MOD1_N16778674)    0.0000                                       

(X_U5.X_U2_U5.U_MOD1_N16778689)    0.0000                                       

(X_U5.X_U2_U5.U_MOD1_N16778700)    0.0000                                       

(X_U5.X_U2_U5.U_MOD1_N16778749)    5.0000                                       

(X_U5.X_U2_U5.U_MOD1_N16778796)     .2000                                       

(X_U5.X_U2_U5.U_MOD1_N16778812)    0.0000                                       

(X_U5.X_U2_U5.U_MOD1_N16778865)     .1999                                       

(X_U5.X_U2_U5.U_MOD1_N16778919)    0.0000                                       

(X_U5.X_U2_U5.U_MOD1_N16778942)     .1302                                       

(X_U5.X_U2_U5.U_MOD1_N16778967)     .2000                                       

(X_U5.X_U2_U5.U_MOD1_N16779705)    0.0000                                       

(X_U5.X_U2_U5.U_MOD1_N16779778)    0.0000                                       

(X_U5.X_U2_U5.U_MOD1_UZD_CLK_1)    0.0000                                       

(X_U5.X_U2_U5.U_MOD1_UZD_HI_5V)    5.0000                                       

(X_U5.X_U2_U5.U_MOD1_U_MINP_HI)    5.0000                                       

(X_U5.X_U2_U5.X_U_MOD1_U13.MY5)    1.0000                                       

(X_U5.X_U2_U5.X_U_MOD1_U13.Qbr)    1.0000                                       

(X_U5.X_U2_U5.X_U_MOD1_U13.Qqq) 260.3E-15                                       

(X_U5.X_U2_U5.X_U_MOD1_U14.MY5)    1.0000                                       

(X_U5.X_U2_U5.X_U_MOD1_U14.Qbr)    1.0000                                       

(X_U5.X_U2_U5.X_U_MOD1_U14.Qqq) 260.3E-15                                       

(X_U5.X_U2_U5.X_U_MOD1_U33.MY5)    1.0000                                       

(X_U5.X_U2_U5.X_U_MOD1_U33.Qbr)    1.0000                                       

(X_U5.X_U2_U5.X_U_MOD1_U33.Qqq) 260.3E-15                                       

(X_U5.X_U2_U5.X_U_MOD1_U34.MY5)    1.0000                                       

(X_U5.X_U2_U5.X_U_MOD1_U34.Qbr)    1.0000                                       

(X_U5.X_U2_U5.X_U_MOD1_U34.Qqq) 260.3E-15                                       

(X_U5.X_U2_U5.X_U_MOD1_U35.MY5)    1.0000                                       

(X_U5.X_U2_U5.X_U_MOD1_U35.Qbr)    1.0000                                       

(X_U5.X_U2_U5.X_U_MOD1_U35.Qqq) 260.3E-15                                       

(X_U5.X_U2_U5.X_U_MOD1_U39.MY5)    1.0000                                       

(X_U5.X_U2_U5.X_U_MOD1_U39.Qbr)    1.0000                                       

(X_U5.X_U2_U5.X_U_MOD1_U39.Qqq) 260.3E-15                                       

(X_U5.X_U2_U5.X_U_MOD1_U41.MY5)    1.0000                                       

(X_U5.X_U2_U5.X_U_MOD1_U41.Qbr)    1.0000                                       

(X_U5.X_U2_U5.X_U_MOD1_U41.Qqq) 260.3E-15                                       

(X_U5.X_U2_U6.X_U_PM_U12.MYVSS)    0.0000                                       

(X_U5.X_U2_U6.X_U_PM_U12.Qqqd1)    0.0000                                       

(X_U5.X_U2_U6.X_U_PM_U14.MYVSS)    0.0000                                       

(X_U5.X_U2_U6.X_U_PM_U14.Qqqd1)    0.0000                                       

(X_U5.X_U2_U6.X_U_PM_U27.MYVSS)    0.0000                                       

(X_U5.X_U2_U6.X_U_PM_U27.Qqqd1)    0.0000                                       

(X_U5.X_U2_U6.X_U_PM_U29.MYVSS)    0.0000                                       

(X_U5.X_U2_U6.X_U_PM_U29.Qqqd1)    0.0000                                       

(X_U5.X_U2_U6.X_U_PM_U30.MYVSS)    0.0000                                       

(X_U5.X_U2_U6.X_U_PM_U30.Qqqd1)    0.0000                                       

(X_U5.X_U2_U7.X_U_CCT_U12.Qint) 260.3E-15                                       

(X_U5.X_U2_U7.X_U_CCT_U32.Qint) 260.3E-15                                       

(X_U5.X_U2_U7.X_U_CCT_U36.YINT)    1.0000                                       

(X_U5.X_U2_U7.X_U_CCT_U37.YINT)    1.0000                                       

(X_U5.X_U2_U7.X_U_CCT_U38.YINT)    0.0000                                       

(X_U5.X_U2_U7.X_U_CCT_U39.YINT)    1.0000                                       

(X_U5.X_U2_U7.X_U_CCT_U40.YINT)    0.0000                                       

(X_U5.X_U2_U7.X_U_CCT_U41.Yint)    1.0000                                       

(X_U5.X_U2_U7.X_U_CCT_U42.YINT)    1.0000                                       

(X_U5.X_U2_U7.X_U_CCT_U44.YINT)    0.0000                                       

(X_U5.X_U2_U7.X_U_CCT_U45.YINT)    0.0000                                       

(X_U5.X_U2_U7.X_U_CCT_U46.YINT)    1.0000                                       

(X_U6.U_wakeup_U_PCD_N16767114)     .0200                                       

(X_U6.U_wakeup_U_PCD_N16767118)-1.564E-09                                       

(X_U6.U_wakeup_U_PCD_N16776522)    0.0000                                       

(X_U6.U_wakeup_U_PCD_N16776709)    0.0000                                       

(X_U6.U_wakeup_U_PCD_N16777813)     .0010                                       

(X_U6.U_wakeup_U_PCD_N16777817)    2.0000                                       

(X_U6.U_wakeup_U_PCD_N16778160)    0.0000                                       

(X_U6.U_wakeup_U_PCD_N16778199)    0.0000                                       

(X_U6.U_wakeup_U_PCD_N16778280)    0.0000                                       

(X_U6.U_wakeup_U_PCD_N16780597)    0.0000                                       

(X_U6.U_wakeup_U_PWR_N16767006)    4.0000                                       

(X_U6.U_wakeup_U_PWR_N16767236)    0.0000                                       

(X_U6.U_wakeup_U_PWR_N16767272)     .2000                                       

(X_U6.U_wakeup_U_PWR_N16767335)    0.0000                                       

(X_U6.U_wakeup_U_PWR_N16767408)    0.0000                                       

(X_U6.U_wakeup_U_PWR_N16767579)    3.7500                                       

(X_U6.U_wakeup_U_PWR_N16767831)    0.0000                                       

(X_U6.U_wakeup_U_PWR_N16769388)    0.0000                                       

(X_U6.U_wakeup_U_TRD_N16761232)     .2000                                       

(X_U6.U_wakeup_U_TRD_N16761244) 34.48E-06                                       

(X_U6.U_wakeup_U_TRD_N16761419)    0.0000                                       

(X_U6.U_wakeup_U_TRD_N16761675)    0.0000                                       

(X_U6.U_wakeup_U_TRD_N16762603)    0.0000                                       

(X_U6.U_wakeup_U_TRD_N16763700)     .2000                                       

(X_U6.U_wakeup_U_TRD_N16774371)    2.0000                                       

(X_U6.U_wakeup_U_TRD_N16774421)    0.0000                                       

(X_U6.U_wakeup_U_TRD_N16774443) 16.67E-06                                       

(X_U6.U_wakeup_U_TRD_N16774501)    0.0000                                       

(X_U6.U_wakeup_U_TRD_N16777732)    0.0000                                       

(X_U6.U_wakeup_U_TRD_N16785319)     .2000                                       

(X_U6.U_wakeup_U_TRD_N16789519)     .2000                                       

(X_U6.X_U_wakeup_U_PCD_U1.Yint)    0.0000                                       

(X_U6.X_U_wakeup_U_PCD_U13.MY5)    1.0000                                       

(X_U6.X_U_wakeup_U_PCD_U13.Qbr)    1.0000                                       

(X_U6.X_U_wakeup_U_PCD_U13.Qqq) 260.3E-15                                       

(X_U6.X_U_wakeup_U_PCD_U2.Yint)    0.0000                                       

(X_U6.X_U_wakeup_U_PWR_U1.Yint)    0.0000                                       

(X_U6.X_U_wakeup_U_PWR_U15.MY5)    1.0000                                       

(X_U6.X_U_wakeup_U_PWR_U15.Qbr)    1.0000                                       

(X_U6.X_U_wakeup_U_PWR_U15.Qqq) 260.3E-15                                       

(X_U6.X_U_wakeup_U_PWR_U2.Yint)    1.0000                                       

(X_U6.X_U_wakeup_U_PWR_U9.YINT)    0.0000                                       

(X_U6.X_U_wakeup_U_TRD_U63.MY5)    1.0000                                       

(X_U6.X_U_wakeup_U_TRD_U63.Qbr)    1.0000                                       

(X_U6.X_U_wakeup_U_TRD_U63.Qqq) 260.3E-15                                       

(X_U6.X_U_wakeup_U_TRD_U64.MY5)    1.0000                                       

(X_U6.X_U_wakeup_U_TRD_U64.Qbr)    1.0000                                       

(X_U6.X_U_wakeup_U_TRD_U64.Qqq) 260.3E-15                                       

(X_U5.X_U2_U3.U_SAMPLER_ARMED_N)     .2000                                      

(X_U5.X_U2_U3.U_SAMPLER_ARMED_P)    0.0000                                      

(X_U5.X_U2_U3.U_SAMPLER_N259041) 2.344E-12                                      

(X_U5.X_U2_U3.U_SAMPLER_N259299)    0.0000                                      

(X_U5.X_U2_U3.U_SAMPLER_N259813)     .2000                                      

(X_U5.X_U2_U3.U_SAMPLER_N259937)    0.0000                                      

(X_U5.X_U2_U3.U_SAMPLER_N259989)    1.3200                                      

(X_U5.X_U2_U3.U_SAMPLER_N260033)    3.7500                                      

(X_U5.X_U2_U3.U_SAMPLER_N260427)    2.0000                                      

(X_U5.X_U2_U3.U_SAMPLER_N261871)    1.4400                                      

(X_U5.X_U2_U3.U_SAMPLER_N262375)    0.0000                                      

(X_U5.X_U2_U3.U_SAMPLER_N262793)     .2000                                      

(X_U5.X_U2_U3.U_SAMPLER_N263355)     .0025                                      

(X_U5.X_U2_U3.U_SAMPLER_N263517)    0.0000                                      

(X_U5.X_U2_U3.U_SAMPLER_N264183)    0.0000                                      

(X_U5.X_U2_U3.U_SAMPLER_N449859)    0.0000                                      

(X_U5.X_U2_U3.U_SAMPLER_N457025) 104.9E-24                                      

(X_U5.X_U2_U3.U_SAMPLER_N635836)     .0025                                      

(X_U5.X_U2_U3.U_SAMPLER_N802933)    0.0000                                      

(X_U5.X_U2_U4.CNTLLAW_N16777606)    0.0000                                      

(X_U5.X_U2_U4.CNTLLAW_N16777629)    0.0000                                      

(X_U5.X_U2_U4.CNTLLAW_N16777648)    0.0000                                      

(X_U5.X_U2_U4.CNTLLAW_N16777658)    0.0000                                      

(X_U5.X_U2_U4.CNTLLAW_N16777666)    0.0000                                      

(X_U5.X_U2_U4.CNTLLAW_N16777758)    3.7500                                      

(X_U5.X_U2_U4.CNTLLAW_N16777764)    3.5000                                      

(X_U5.X_U2_U4.CNTLLAW_N16777768)    2.6500                                      

(X_U5.X_U2_U4.CNTLLAW_N16777879)     .9731                                      

(X_U5.X_U2_U4.CNTLLAW_N16777883)    2.1394                                      

(X_U5.X_U2_U4.CNTLLAW_N16777913)    2.2000                                      

(X_U5.X_U2_U4.CNTLLAW_N16777945)    1.2500                                      

(X_U5.X_U2_U4.CNTLLAW_N16777966)    0.0000                                      

(X_U5.X_U2_U4.CNTLLAW_N16778142)    4.0000                                      

(X_U5.X_U2_U4.CNTLLAW_N16778222)    1.2500                                      

(X_U5.X_U2_U4.CNTLLAW_N16778445)    1.2500                                      

(X_U5.X_U2_U4.CNTLLAW_N16778516)    0.0000                                      

(X_U5.X_U2_U4.CNTLLAW_N16778521)     .2000                                      

(X_U5.X_U2_U4.CNTLLAW_N16778587)    0.0000                                      

(X_U5.X_U2_U4.CNTLLAW_N16778656)    0.0000                                      

(X_U5.X_U2_U4.CNTLLAW_N16778668)     .2000                                      

(X_U5.X_U2_U4.CNTLLAW_N16779036)    0.0000                                      

(X_U5.X_U2_U4.CNTLLAW_N16779181)    2.2000                                      

(X_U5.X_U2_U4.CNTLLAW_N16779186)    0.0000                                      

(X_U5.X_U2_U4.CNTLLAW_N16779191)    2.2000                                      

(X_U5.X_U2_U4.CNTLLAW_N16790331) 208.6E-09                                      

(X_U5.X_U2_U4.CNTLLAW_N16792978)    0.0000                                      

(X_U5.X_U2_U4.CNTLLAW_N16793003)     .2000                                      

(X_U5.X_U2_U4.CNTLLAW_N16793009)     .2000                                      

(X_U5.X_U2_U4.CNTLLAW_N16793149)    0.0000                                      

(X_U5.X_U2_U4.X_CNTLLAW_U12.MY5)    1.0000                                      

(X_U5.X_U2_U4.X_CNTLLAW_U12.Qbr)    1.0000                                      

(X_U5.X_U2_U4.X_CNTLLAW_U12.Qqq) 260.3E-15                                      

(X_U5.X_U2_U4.X_CNTLLAW_U13.MY5)    1.0000                                      

(X_U5.X_U2_U4.X_CNTLLAW_U13.Qbr)    1.0000                                      

(X_U5.X_U2_U4.X_CNTLLAW_U13.Qqq) 260.3E-15                                      

(X_U5.X_U2_U4.X_CNTLLAW_U30.MY5)    1.0000                                      

(X_U5.X_U2_U4.X_CNTLLAW_U30.Qbr)    1.0000                                      

(X_U5.X_U2_U4.X_CNTLLAW_U30.Qqq) 260.3E-15                                      

(X_U5.X_U2_U4.X_CNTLLAW_U31.MY5)    1.0000                                      

(X_U5.X_U2_U4.X_CNTLLAW_U31.Qbr)    1.0000                                      

(X_U5.X_U2_U4.X_CNTLLAW_U31.Qqq) 260.3E-15                                      

(X_U5.X_U2_U4.X_CNTLLAW_U32.MY5)    1.0000                                      

(X_U5.X_U2_U4.X_CNTLLAW_U32.Qbr)    1.0000                                      

(X_U5.X_U2_U4.X_CNTLLAW_U32.Qqq) 260.3E-15                                      

(X_U5.X_U2_U4.X_CNTLLAW_U33.MY5)    1.0000                                      

(X_U5.X_U2_U4.X_CNTLLAW_U33.Qbr)    1.0000                                      

(X_U5.X_U2_U4.X_CNTLLAW_U33.Qqq) 260.3E-15                                      

(X_U5.X_U2_U4.X_CNTLLAW_U34.MY5)    1.0000                                      

(X_U5.X_U2_U4.X_CNTLLAW_U34.Qbr)    1.0000                                      

(X_U5.X_U2_U4.X_CNTLLAW_U34.Qqq) 260.3E-15                                      

(X_U5.X_U2_U5.X_U_MOD1_U13.Qint) 260.3E-15                                      

(X_U5.X_U2_U5.X_U_MOD1_U14.Qint) 260.3E-15                                      

(X_U5.X_U2_U5.X_U_MOD1_U33.Qint) 260.3E-15                                      

(X_U5.X_U2_U5.X_U_MOD1_U34.Qint) 260.3E-15                                      

(X_U5.X_U2_U5.X_U_MOD1_U35.Qint) 260.3E-15                                      

(X_U5.X_U2_U5.X_U_MOD1_U36.YINT)    1.0000                                      

(X_U5.X_U2_U5.X_U_MOD1_U37.YINT)    1.0000                                      

(X_U5.X_U2_U5.X_U_MOD1_U38.YINT)    1.0000                                      

(X_U5.X_U2_U5.X_U_MOD1_U39.Qint) 260.3E-15                                      

(X_U5.X_U2_U5.X_U_MOD1_U41.Qint) 260.3E-15                                      

(X_U5.X_U2_U5.X_U_MOD1_U42.YINT)    1.0000                                      

(X_U5.X_U2_U5.X_U_MOD1_U43.YINT)    1.0000                                      

(X_U5.X_U2_U5.X_U_MOD1_U44.YINT)    1.0000                                      

(X_U5.X_U2_U5.X_U_MOD1_U45.YINT)    0.0000                                      

(X_U5.X_U2_U5.X_U_MOD1_U46.YINT)    0.0000                                      

(X_U5.X_U2_U5.X_U_MOD1_U47.YINT)    1.0000                                      

(X_U5.X_U2_U5.X_U_MOD1_U48.YINT)    0.0000                                      

(X_U5.X_U2_U5.X_U_MOD1_U49.YINT)    0.0000                                      

(X_U5.X_U2_U5.X_U_MOD1_U50.YINT)    0.0000                                      

(X_U5.X_U2_U5.X_U_MOD1_U51.YINT)    0.0000                                      

(X_U5.X_U2_U5.X_U_MOD1_U52.YINT)    0.0000                                      

(X_U5.X_U2_U5.X_U_MOD1_U53.Yint)    0.0000                                      

(X_U5.X_U2_U5.X_U_MOD1_U57.YINT)    1.0000                                      

(X_U5.X_U2_U6.X_U_PM_U27.CLKdel)     .2000                                      

(X_U5.X_U2_U6.X_U_PM_U27.CLKint)    0.0000                                      

(X_U5.X_U2_U6.X_U_PM_U29.CLKdel)     .2000                                      

(X_U5.X_U2_U6.X_U_PM_U29.CLKint)    0.0000                                      

(X_U5.X_U2_U6.X_U_PM_U30.CLKdel)     .2000                                      

(X_U5.X_U2_U6.X_U_PM_U30.CLKint)    0.0000                                      

(X_U5.X_U2_U7.X_U_CCT_U12.MYVSS)    0.0000                                      

(X_U5.X_U2_U7.X_U_CCT_U12.Qqqd1)    0.0000                                      

(X_U5.X_U2_U7.X_U_CCT_U32.MYVSS)    0.0000                                      

(X_U5.X_U2_U7.X_U_CCT_U32.Qqqd1)    0.0000                                      

(X_U6.U_wakeup_U_HVSW_N16760399)    -.0011                                      

(X_U6.U_wakeup_U_HVSW_N16760571)    -.0019                                      

(X_U6.U_wakeup_U_HVSW_N16760732)    -.0011                                      

(X_U6.X_U_wakeup_U_PCD_U13.Qint) 260.3E-15                                      

(X_U6.X_U_wakeup_U_PCD_U17.YINT)    1.0000                                      

(X_U6.X_U_wakeup_U_PCD_U50.YINT)    0.0000                                      

(X_U6.X_U_wakeup_U_PCD_U55.YINT)    0.0000                                      

(X_U6.X_U_wakeup_U_PCD_U62.meas)    0.0000                                      

(X_U6.X_U_wakeup_U_PCD_U67.YINT)    0.0000                                      

(X_U6.X_U_wakeup_U_PWR_U15.Qint) 260.3E-15                                      

(X_U6.X_U_wakeup_U_TRD_U16.YINT)    1.0000                                      

(X_U6.X_U_wakeup_U_TRD_U17.YINT)    1.0000                                      

(X_U6.X_U_wakeup_U_TRD_U18.YINT)    1.0000                                      

(X_U6.X_U_wakeup_U_TRD_U19.YINT)    1.0000                                      

(X_U6.X_U_wakeup_U_TRD_U26.Yint)    1.0000                                      

(X_U6.X_U_wakeup_U_TRD_U27.Yint)    1.0000                                      

(X_U6.X_U_wakeup_U_TRD_U28.Yint)    0.0000                                      

(X_U6.X_U_wakeup_U_TRD_U55.YINT)    0.0000                                      

(X_U6.X_U_wakeup_U_TRD_U56.YINT)    0.0000                                      

(X_U6.X_U_wakeup_U_TRD_U57.YINT)    0.0000                                      

(X_U6.X_U_wakeup_U_TRD_U60.YINT)    0.0000                                      

(X_U6.X_U_wakeup_U_TRD_U62.meas)    0.0000                                      

(X_U6.X_U_wakeup_U_TRD_U63.Qint) 260.3E-15                                      

(X_U6.X_U_wakeup_U_TRD_U64.Qint) 260.3E-15                                      

(X_U6.X_U_wakeup_U_TRD_U65.YINT)    0.0000                                      

(X_U5.X_U2_U3.X_U_SAMPLER_U62.ch)    0.0000                                     

(X_U5.X_U2_U3.X_U_SAMPLER_U63.ch)    0.0000                                     

(X_U5.X_U2_U3.X_U_SAMPLER_U7.MY5)    1.0000                                     

(X_U5.X_U2_U3.X_U_SAMPLER_U7.Qbr)    1.0000                                     

(X_U5.X_U2_U3.X_U_SAMPLER_U7.Qqq) 260.3E-15                                     

(X_U5.X_U2_U3.X_U_SAMPLER_U8.MY5)    1.0000                                     

(X_U5.X_U2_U3.X_U_SAMPLER_U8.Qbr)    1.0000                                     

(X_U5.X_U2_U3.X_U_SAMPLER_U8.Qqq) 260.3E-15                                     

(X_U5.X_U2_U4.X_CNTLLAW_U12.Qint) 260.3E-15                                     

(X_U5.X_U2_U4.X_CNTLLAW_U13.Qint) 260.3E-15                                     

(X_U5.X_U2_U4.X_CNTLLAW_U30.Qint) 260.3E-15                                     

(X_U5.X_U2_U4.X_CNTLLAW_U31.Qint) 260.3E-15                                     

(X_U5.X_U2_U4.X_CNTLLAW_U32.Qint) 260.3E-15                                     

(X_U5.X_U2_U4.X_CNTLLAW_U33.Qint) 260.3E-15                                     

(X_U5.X_U2_U4.X_CNTLLAW_U34.Qint) 260.3E-15                                     

(X_U5.X_U2_U4.X_CNTLLAW_U36.YINT)    0.0000                                     

(X_U5.X_U2_U4.X_CNTLLAW_U37.YINT)    1.0000                                     

(X_U5.X_U2_U4.X_CNTLLAW_U38.YINT)    0.0000                                     

(X_U5.X_U2_U4.X_CNTLLAW_U39.YINT)    1.0000                                     

(X_U5.X_U2_U4.X_CNTLLAW_U40.YINT)    1.0000                                     

(X_U5.X_U2_U4.X_CNTLLAW_U41.YINT)    0.0000                                     

(X_U5.X_U2_U4.X_CNTLLAW_U44.YINT)    0.0000                                     

(X_U5.X_U2_U4.X_CNTLLAW_U45.YINT)    0.0000                                     

(X_U5.X_U2_U4.X_CNTLLAW_U46.YINT)    0.0000                                     

(X_U5.X_U2_U4.X_CNTLLAW_U47.YINT)    0.0000                                     

(X_U5.X_U2_U4.X_CNTLLAW_U48.YINT)    0.0000                                     

(X_U5.X_U2_U4.X_CNTLLAW_U50.YINT)    0.0000                                     

(X_U5.X_U2_U4.X_CNTLLAW_U51.YINT)    0.0000                                     

(X_U5.X_U2_U4.X_CNTLLAW_U52.YINT)    0.0000                                     

(X_U5.X_U2_U4.X_CNTLLAW_U53.Yint)    0.0000                                     

(X_U5.X_U2_U4.X_CNTLLAW_U55.YINT)    0.0000                                     

(X_U5.X_U2_U4.X_CNTLLAW_U56.YINT)    1.0000                                     

(X_U5.X_U2_U4.X_CNTLLAW_U57.YINT)    1.0000                                     

(X_U5.X_U2_U4.X_CNTLLAW_U58.YINT)    0.0000                                     

(X_U5.X_U2_U4.X_CNTLLAW_U60.YINT)    0.0000                                     

(X_U5.X_U2_U4.X_CNTLLAW_U61.YINT)    0.0000                                     

(X_U5.X_U2_U4.X_CNTLLAW_U62.YINT)    0.0000                                     

(X_U5.X_U2_U4.X_CNTLLAW_U77.YINT)    0.0000                                     

(X_U5.X_U2_U4.X_CNTLLAW_U78.Vout)     .8400                                     

(X_U5.X_U2_U5.U_MOD1_UZD_N408908)    0.0000                                     

(X_U5.X_U2_U5.U_MOD1_UZD_N409026)     .2000                                     

(X_U5.X_U2_U5.U_MOD1_UZD_N416307)     .2000                                     

(X_U5.X_U2_U5.U_MOD1_UZD_N416512)     .2000                                     

(X_U5.X_U2_U5.U_MOD1_UZD_N416643)     .2000                                     

(X_U5.X_U2_U5.U_MOD1_UZD_N418016)     .0200                                     

(X_U5.X_U2_U5.U_MOD1_UZD_N418289)    0.0000                                     

(X_U5.X_U2_U5.U_MOD1_UZD_N418495)    0.0000                                     

(X_U5.X_U2_U5.U_MOD1_UZD_N419465)    0.0000                                     

(X_U5.X_U2_U5.U_MOD1_UZD_N419975)    0.0000                                     

(X_U5.X_U2_U5.U_MOD1_UZD_N420044)     .2000                                     

(X_U5.X_U2_U5.U_MOD1_UZD_N420660)    0.0000                                     

(X_U5.X_U2_U5.U_MOD1_UZD_N420735)    0.0000                                     

(X_U5.X_U2_U5.U_MOD1_UZD_N423067)    0.0000                                     

(X_U5.X_U2_U5.U_MOD1_UZD_N423618)    0.0000                                     

(X_U5.X_U2_U5.U_MOD1_UZD_N423713)    0.0000                                     

(X_U5.X_U2_U5.U_MOD1_UZD_N423909)    0.0000                                     

(X_U5.X_U2_U5.U_MOD1_UZD_N424373)    0.0000                                     

(X_U5.X_U2_U5.U_MOD1_UZD_N426305)     .2000                                     

(X_U5.X_U2_U5.U_MOD1_UZD_N426523)    0.0000                                     

(X_U5.X_U2_U5.U_MOD1_UZD_N426972)     .2000                                     

(X_U5.X_U2_U5.U_MOD1_UZD_N430044)    0.0000                                     

(X_U5.X_U2_U5.U_MOD1_UZD_N430534)    0.0000                                     

(X_U5.X_U2_U5.U_MOD1_UZD_N430659)    0.0000                                     

(X_U5.X_U2_U5.U_MOD1_UZD_N432893)     .2000                                     

(X_U5.X_U2_U5.U_MOD1_UZD_N443772)    0.0000                                     

(X_U5.X_U2_U5.U_MOD1_UZD_N447332)    0.0000                                     

(X_U5.X_U2_U5.U_MOD1_UZD_N448059)    0.0000                                     

(X_U5.X_U2_U5.U_MOD1_UZD_N472888) 375.0E-06                                     

(X_U5.X_U2_U5.X_U_MOD1_U13.MYVSS)    0.0000                                     

(X_U5.X_U2_U5.X_U_MOD1_U13.Qqqd1)    0.0000                                     

(X_U5.X_U2_U5.X_U_MOD1_U14.MYVSS)    0.0000                                     

(X_U5.X_U2_U5.X_U_MOD1_U14.Qqqd1)    0.0000                                     

(X_U5.X_U2_U5.X_U_MOD1_U33.MYVSS)    0.0000                                     

(X_U5.X_U2_U5.X_U_MOD1_U33.Qqqd1)    0.0000                                     

(X_U5.X_U2_U5.X_U_MOD1_U34.MYVSS)    0.0000                                     

(X_U5.X_U2_U5.X_U_MOD1_U34.Qqqd1)    0.0000                                     

(X_U5.X_U2_U5.X_U_MOD1_U35.MYVSS)    0.0000                                     

(X_U5.X_U2_U5.X_U_MOD1_U35.Qqqd1)    0.0000                                     

(X_U5.X_U2_U5.X_U_MOD1_U39.MYVSS)    0.0000                                     

(X_U5.X_U2_U5.X_U_MOD1_U39.Qqqd1)    0.0000                                     

(X_U5.X_U2_U5.X_U_MOD1_U41.MYVSS)    0.0000                                     

(X_U5.X_U2_U5.X_U_MOD1_U41.Qqqd1)    0.0000                                     

(X_U5.X_U2_U5.X_U_MOD1_U58.YINT1)    0.0000                                     

(X_U5.X_U2_U5.X_U_MOD1_U58.YINT2)    0.0000                                     

(X_U5.X_U2_U5.X_U_MOD1_U58.YINT3)    0.0000                                     

(X_U5.X_U2_U6.X_U_PM_U12.X3.YINT)    0.0000                                     

(X_U5.X_U2_U6.X_U_PM_U14.X3.YINT)    0.0000                                     

(X_U5.X_U2_U6.X_U_PM_U27.X2.YINT)    0.0000                                     

(X_U5.X_U2_U6.X_U_PM_U29.X2.YINT)    0.0000                                     

(X_U5.X_U2_U6.X_U_PM_U30.X2.YINT)    0.0000                                     

(X_U5.X_U2_U7.X_U_CCT_U32.CLKdel)     .2000                                     

(X_U5.X_U2_U7.X_U_CCT_U32.CLKint)    0.0000                                     

(X_U6.X_U_wakeup_U_PCD_U13.MYVSS)    0.0000                                     

(X_U6.X_U_wakeup_U_PCD_U13.Qqqd1)    0.0000                                     

(X_U6.X_U_wakeup_U_PCD_U62.reset)    1.0000                                     

(X_U6.X_U_wakeup_U_PWR_U15.MYVSS)    0.0000                                     

(X_U6.X_U_wakeup_U_PWR_U15.Qqqd1)    0.0000                                     

(X_U6.X_U_wakeup_U_PWR_U16.YINT1)    0.0000                                     

(X_U6.X_U_wakeup_U_PWR_U16.YINT2)    0.0000                                     

(X_U6.X_U_wakeup_U_PWR_U16.YINT3)    0.0000                                     

(X_U6.X_U_wakeup_U_TRD_U62.reset)    1.0000                                     

(X_U6.X_U_wakeup_U_TRD_U63.MYVSS)    0.0000                                     

(X_U6.X_U_wakeup_U_TRD_U63.Qqqd1)    0.0000                                     

(X_U6.X_U_wakeup_U_TRD_U64.MYVSS)    0.0000                                     

(X_U6.X_U_wakeup_U_TRD_U64.Qqqd1)    0.0000                                     

(X_U5.X_U2_U3.U_SAMPLER_N16802707)    0.0000                                    

(X_U5.X_U2_U3.U_SAMPLER_N16809688) 104.9E-24                                    

(X_U5.X_U2_U3.U_SAMPLER_N16812037)    0.0000                                    

(X_U5.X_U2_U3.U_SAMPLER_N16812576) 104.9E-24                                    

(X_U5.X_U2_U3.U_SAMPLER_N16825269)    2.5000                                    

(X_U5.X_U2_U3.U_SAMPLER_N16825275) 988.1E-06                                    

(X_U5.X_U2_U3.U_SAMPLER_N16825288)     .0618                                    

(X_U5.X_U2_U3.U_SAMPLER_N16832445)    2.5617                                    

(X_U5.X_U2_U3.U_SAMPLER_N16834775)    2.5617                                    

(X_U5.X_U2_U3.U_SAMPLER_N16838428)    3.2617                                    

(X_U5.X_U2_U3.U_SAMPLER_N16850829)    2.5617                                    

(X_U5.X_U2_U3.U_SAMPLER_N16852540)    2.5617                                    

(X_U5.X_U2_U3.U_SAMPLER_N16862928)    1.2697                                    

(X_U5.X_U2_U3.U_SAMPLER_N16869027)    1.2697                                    

(X_U5.X_U2_U3.U_SAMPLER_N16869490)    1.2697                                    

(X_U5.X_U2_U3.U_SAMPLER_N16874968)    1.2697                                    

(X_U5.X_U2_U3.U_SAMPLER_N16875431)    -.6591                                    

(X_U5.X_U2_U3.U_SAMPLER_N16877262)     .0356                                    

(X_U5.X_U2_U3.U_SAMPLER_N16893982) 1.680E-09                                    

(X_U5.X_U2_U3.U_SAMPLER_N16932844)    0.0000                                    

(X_U5.X_U2_U3.U_SAMPLER_N16937288)     .2000                                    

(X_U5.X_U2_U3.U_SAMPLER_N16937290)    0.0000                                    

(X_U5.X_U2_U3.U_SAMPLER_N16937333)     .2000                                    

(X_U5.X_U2_U3.U_SAMPLER_N16955513)    4.9020                                    

(X_U5.X_U2_U3.U_SAMPLER_N16956012)    5.0000                                    

(X_U5.X_U2_U3.U_SAMPLER_N16967298)     .0047                                    

(X_U5.X_U2_U3.U_SAMPLER_N16978808)    1.4000                                    

(X_U5.X_U2_U3.U_SAMPLER_N16980500)     .2000                                    

(X_U5.X_U2_U3.U_SAMPLER_N17006357)    0.0000                                    

(X_U5.X_U2_U3.U_SAMPLER_N17008274)    0.0000                                    

(X_U5.X_U2_U3.U_SAMPLER_N17015585)     .2000                                    

(X_U5.X_U2_U3.U_SAMPLER_N17022924)     .2000                                    

(X_U5.X_U2_U3.U_SAMPLER_N17071280)    2.3990                                    

(X_U5.X_U2_U3.U_SAMPLER_N17075511)    3.2721                                    

(X_U5.X_U2_U3.U_SAMPLER_N17076650)    1.5274                                    

(X_U5.X_U2_U3.U_SAMPLER_N17076682)    2.4003                                    

(X_U5.X_U2_U3.X_U_SAMPLER_U1.YINT)    1.0000                                    

(X_U5.X_U2_U3.X_U_SAMPLER_U12.MY5)    1.0000                                    

(X_U5.X_U2_U3.X_U_SAMPLER_U12.Qbr)    1.0000                                    

(X_U5.X_U2_U3.X_U_SAMPLER_U12.Qqq) 260.3E-15                                    

(X_U5.X_U2_U3.X_U_SAMPLER_U2.YINT)    1.0000                                    

(X_U5.X_U2_U3.X_U_SAMPLER_U25.MY5)    1.0000                                    

(X_U5.X_U2_U3.X_U_SAMPLER_U25.Qbr)    1.0000                                    

(X_U5.X_U2_U3.X_U_SAMPLER_U25.Qqq) 260.3E-15                                    

(X_U5.X_U2_U3.X_U_SAMPLER_U5.YINT)    0.0000                                    

(X_U5.X_U2_U3.X_U_SAMPLER_U6.YINT)    0.0000                                    

(X_U5.X_U2_U3.X_U_SAMPLER_U67.MY5)    1.0000                                    

(X_U5.X_U2_U3.X_U_SAMPLER_U67.Qbr)    1.0000                                    

(X_U5.X_U2_U3.X_U_SAMPLER_U67.Qqq) 260.3E-15                                    

(X_U5.X_U2_U3.X_U_SAMPLER_U7.Qint) 260.3E-15                                    

(X_U5.X_U2_U3.X_U_SAMPLER_U8.Qint) 260.3E-15                                    

(X_U5.X_U2_U3.X_U_SAMPLER_U9.YINT)    0.0000                                    

(X_U5.X_U2_U4.CNTLLAW_VLC_LIMITED)     .4000                                    

(X_U5.X_U2_U4.X_CNTLLAW_U12.MYVSS)    0.0000                                    

(X_U5.X_U2_U4.X_CNTLLAW_U12.Qqqd1)    0.0000                                    

(X_U5.X_U2_U4.X_CNTLLAW_U13.MYVSS)    0.0000                                    

(X_U5.X_U2_U4.X_CNTLLAW_U13.Qqqd1)    0.0000                                    

(X_U5.X_U2_U4.X_CNTLLAW_U30.MYVSS)    0.0000                                    

(X_U5.X_U2_U4.X_CNTLLAW_U30.Qqqd1)    0.0000                                    

(X_U5.X_U2_U4.X_CNTLLAW_U31.MYVSS)    0.0000                                    

(X_U5.X_U2_U4.X_CNTLLAW_U31.Qqqd1)    0.0000                                    

(X_U5.X_U2_U4.X_CNTLLAW_U32.MYVSS)    0.0000                                    

(X_U5.X_U2_U4.X_CNTLLAW_U32.Qqqd1)    0.0000                                    

(X_U5.X_U2_U4.X_CNTLLAW_U33.MYVSS)    0.0000                                    

(X_U5.X_U2_U4.X_CNTLLAW_U33.Qqqd1)    0.0000                                    

(X_U5.X_U2_U4.X_CNTLLAW_U34.MYVSS)    0.0000                                    

(X_U5.X_U2_U4.X_CNTLLAW_U34.Qqqd1)    0.0000                                    

(X_U5.X_U2_U4.X_CNTLLAW_U76.YINT1)    0.0000                                    

(X_U5.X_U2_U4.X_CNTLLAW_U76.YINT2)    0.0000                                    

(X_U5.X_U2_U4.X_CNTLLAW_U76.YINT3)    1.0000                                    

(X_U5.X_U2_U4.X_CNTLLAW_U78.WAKEZ)    1.0000                                    

(X_U5.X_U2_U5.U_MOD1_UPCC_N427451)    0.0000                                    

(X_U5.X_U2_U5.U_MOD1_UPCC_N429302)     .0496                                    

(X_U5.X_U2_U5.U_MOD1_UZD_EN_DLY_Z)     .2000                                    

(X_U5.X_U2_U5.X_U_MOD1_U33.CLKdel)     .2000                                    

(X_U5.X_U2_U5.X_U_MOD1_U33.CLKint)    0.0000                                    

(X_U5.X_U2_U5.X_U_MOD1_U34.CLKdel)     .2000                                    

(X_U5.X_U2_U5.X_U_MOD1_U34.CLKint)    0.0000                                    

(X_U5.X_U2_U5.X_U_MOD1_U35.CLKdel)     .2000                                    

(X_U5.X_U2_U5.X_U_MOD1_U35.CLKint)    0.0000                                    

(X_U5.X_U2_U5.X_U_MOD1_U39.CLKdel)     .2000                                    

(X_U5.X_U2_U5.X_U_MOD1_U39.CLKint)    0.0000                                    

(X_U5.X_U2_U5.X_U_MOD1_U41.CLKdel)     .2000                                    

(X_U5.X_U2_U5.X_U_MOD1_U41.CLKint)    0.0000                                    

(X_U5.X_U2_U5.X_U_MOD1_UZD_U9.MY5)    1.0000                                    

(X_U5.X_U2_U5.X_U_MOD1_UZD_U9.Qbr)    1.0000                                    

(X_U5.X_U2_U5.X_U_MOD1_UZD_U9.Qqq) 260.3E-15                                    

(X_U5.X_U2_U6.X_U_PM_U27.X1.YINT1)    0.0000                                    

(X_U5.X_U2_U6.X_U_PM_U27.X1.YINT2)    0.0000                                    

(X_U5.X_U2_U6.X_U_PM_U27.X1.YINT3)    1.0000                                    

(X_U5.X_U2_U6.X_U_PM_U27.X3.YINT1)    0.0000                                    

(X_U5.X_U2_U6.X_U_PM_U27.X3.YINT2)    0.0000                                    

(X_U5.X_U2_U6.X_U_PM_U27.X3.YINT3)    0.0000                                    

(X_U5.X_U2_U6.X_U_PM_U29.X1.YINT1)    0.0000                                    

(X_U5.X_U2_U6.X_U_PM_U29.X1.YINT2)    0.0000                                    

(X_U5.X_U2_U6.X_U_PM_U29.X1.YINT3)    1.0000                                    

(X_U5.X_U2_U6.X_U_PM_U29.X3.YINT1)    0.0000                                    

(X_U5.X_U2_U6.X_U_PM_U29.X3.YINT2)    0.0000                                    

(X_U5.X_U2_U6.X_U_PM_U29.X3.YINT3)    0.0000                                    

(X_U5.X_U2_U6.X_U_PM_U30.X1.YINT1)    0.0000                                    

(X_U5.X_U2_U6.X_U_PM_U30.X1.YINT2)    0.0000                                    

(X_U5.X_U2_U6.X_U_PM_U30.X1.YINT3)    1.0000                                    

(X_U5.X_U2_U6.X_U_PM_U30.X3.YINT1)    0.0000                                    

(X_U5.X_U2_U6.X_U_PM_U30.X3.YINT2)    0.0000                                    

(X_U5.X_U2_U6.X_U_PM_U30.X3.YINT3)    0.0000                                    

(X_U5.X_U2_U7.X_U_CCT_U12.X3.YINT)    0.0000                                    

(X_U5.X_U2_U7.X_U_CCT_U32.X2.YINT)    0.0000                                    

(X_U6.X_U_wakeup_U_PCD_U62.reset2)     .6341                                    

(X_U6.X_U_wakeup_U_TRD_U62.reset2)     .6341                                    

(X_U6.X_U_wakeup_U_TRD_U63.CLKdel)     .2000                                    

(X_U6.X_U_wakeup_U_TRD_U63.CLKint)    0.0000                                    

(X_U6.X_U_wakeup_U_TRD_U64.CLKdel)     .2000                                    

(X_U6.X_U_wakeup_U_TRD_U64.CLKint)    0.0000                                    

(X_U5.X_U2_U3.U_SAMPLER_N167531850)    3.7618                                   

(X_U5.X_U2_U3.X_U_SAMPLER_U10.YINT)    0.0000                                   

(X_U5.X_U2_U3.X_U_SAMPLER_U11.YINT)    1.0000                                   

(X_U5.X_U2_U3.X_U_SAMPLER_U12.Qint) 260.3E-15                                   

(X_U5.X_U2_U3.X_U_SAMPLER_U13.YINT)    0.0000                                   

(X_U5.X_U2_U3.X_U_SAMPLER_U14.YINT)    0.0000                                   

(X_U5.X_U2_U3.X_U_SAMPLER_U15.YINT)    0.0000                                   

(X_U5.X_U2_U3.X_U_SAMPLER_U21.YINT)    0.0000                                   

(X_U5.X_U2_U3.X_U_SAMPLER_U22.YINT)    1.0000                                   

(X_U5.X_U2_U3.X_U_SAMPLER_U23.Yint)    1.0000                                   

(X_U5.X_U2_U3.X_U_SAMPLER_U24.Yint)    0.0000                                   

(X_U5.X_U2_U3.X_U_SAMPLER_U25.Qint) 260.3E-15                                   

(X_U5.X_U2_U3.X_U_SAMPLER_U26.Yint)    1.0000                                   

(X_U5.X_U2_U3.X_U_SAMPLER_U27.Yint)    0.0000                                   

(X_U5.X_U2_U3.X_U_SAMPLER_U28.Yint)    0.0000                                   

(X_U5.X_U2_U3.X_U_SAMPLER_U29.YINT)    1.0000                                   

(X_U5.X_U2_U3.X_U_SAMPLER_U30.YINT)    1.0000                                   

(X_U5.X_U2_U3.X_U_SAMPLER_U31.YINT)    0.0000                                   

(X_U5.X_U2_U3.X_U_SAMPLER_U32.YINT)    1.0000                                   

(X_U5.X_U2_U3.X_U_SAMPLER_U62.meas)    0.0000                                   

(X_U5.X_U2_U3.X_U_SAMPLER_U63.meas)    0.0000                                   

(X_U5.X_U2_U3.X_U_SAMPLER_U64.YINT)    0.0000                                   

(X_U5.X_U2_U3.X_U_SAMPLER_U65.YINT)    0.0000                                   

(X_U5.X_U2_U3.X_U_SAMPLER_U67.Qint) 260.3E-15                                   

(X_U5.X_U2_U3.X_U_SAMPLER_U7.MYVSS)    0.0000                                   

(X_U5.X_U2_U3.X_U_SAMPLER_U7.Qqqd1)    0.0000                                   

(X_U5.X_U2_U3.X_U_SAMPLER_U8.MYVSS)    0.0000                                   

(X_U5.X_U2_U3.X_U_SAMPLER_U8.Qqqd1)    0.0000                                   

(X_U5.X_U2_U4.X_CNTLLAW_U30.CLKdel)     .2000                                   

(X_U5.X_U2_U4.X_CNTLLAW_U30.CLKint)    0.0000                                   

(X_U5.X_U2_U4.X_CNTLLAW_U31.CLKdel)     .2000                                   

(X_U5.X_U2_U4.X_CNTLLAW_U31.CLKint)    0.0000                                   

(X_U5.X_U2_U4.X_CNTLLAW_U32.CLKdel)     .2000                                   

(X_U5.X_U2_U4.X_CNTLLAW_U32.CLKint)    0.0000                                   

(X_U5.X_U2_U4.X_CNTLLAW_U33.CLKdel)     .2000                                   

(X_U5.X_U2_U4.X_CNTLLAW_U33.CLKint)    0.0000                                   

(X_U5.X_U2_U4.X_CNTLLAW_U34.CLKdel)     .2000                                   

(X_U5.X_U2_U4.X_CNTLLAW_U34.CLKint)    0.0000                                   

(X_U5.X_U2_U5.U_MOD1_UZD_N16692418) 687.7E-06                                   

(X_U5.X_U2_U5.U_MOD1_UZD_N16692574)     .2000                                   

(X_U5.X_U2_U5.U_MOD1_ZCD_FIRST_DLY)    0.0000                                   

(X_U5.X_U2_U5.X_U_MOD1_U13.X3.YINT)    0.0000                                   

(X_U5.X_U2_U5.X_U_MOD1_U14.X3.YINT)    0.0000                                   

(X_U5.X_U2_U5.X_U_MOD1_U33.X2.YINT)    0.0000                                   

(X_U5.X_U2_U5.X_U_MOD1_U34.X2.YINT)    0.0000                                   

(X_U5.X_U2_U5.X_U_MOD1_U35.X2.YINT)    0.0000                                   

(X_U5.X_U2_U5.X_U_MOD1_U39.X2.YINT)    0.0000                                   

(X_U5.X_U2_U5.X_U_MOD1_U41.X2.YINT)    0.0000                                   

(X_U5.X_U2_U5.X_U_MOD1_UPCC_U62.ch)    0.0000                                   

(X_U5.X_U2_U5.X_U_MOD1_UZD_U14.MY5)    1.0000                                   

(X_U5.X_U2_U5.X_U_MOD1_UZD_U14.Qbr)    1.0000                                   

(X_U5.X_U2_U5.X_U_MOD1_UZD_U14.Qqq) 260.3E-15                                   

(X_U5.X_U2_U5.X_U_MOD1_UZD_U33.MY5)    1.0000                                   

(X_U5.X_U2_U5.X_U_MOD1_UZD_U33.Qbr)    1.0000                                   

(X_U5.X_U2_U5.X_U_MOD1_UZD_U33.Qqq) 260.3E-15                                   

(X_U5.X_U2_U5.X_U_MOD1_UZD_U34.MY5)    1.0000                                   

(X_U5.X_U2_U5.X_U_MOD1_UZD_U34.Qbr)    1.0000                                   

(X_U5.X_U2_U5.X_U_MOD1_UZD_U34.Qqq) 260.3E-15                                   

(X_U5.X_U2_U5.X_U_MOD1_UZD_U36.MY5)    1.0000                                   

(X_U5.X_U2_U5.X_U_MOD1_UZD_U36.Qbr)    1.0000                                   

(X_U5.X_U2_U5.X_U_MOD1_UZD_U36.Qqq) 260.3E-15                                   

(X_U5.X_U2_U5.X_U_MOD1_UZD_U37.MY5)    1.0000                                   

(X_U5.X_U2_U5.X_U_MOD1_UZD_U37.Qbr)    1.0000                                   

(X_U5.X_U2_U5.X_U_MOD1_UZD_U37.Qqq) 260.3E-15                                   

(X_U5.X_U2_U5.X_U_MOD1_UZD_U4.YINT)    0.0000                                   

(X_U5.X_U2_U5.X_U_MOD1_UZD_U6.YINT)    0.0000                                   

(X_U5.X_U2_U5.X_U_MOD1_UZD_U7.YINT)    0.0000                                   

(X_U5.X_U2_U5.X_U_MOD1_UZD_U9.Qint) 260.3E-15                                   

(X_U5.X_U2_U7.X_U_CCT_U32.X1.YINT1)    0.0000                                   

(X_U5.X_U2_U7.X_U_CCT_U32.X1.YINT2)    0.0000                                   

(X_U5.X_U2_U7.X_U_CCT_U32.X1.YINT3)    1.0000                                   

(X_U5.X_U2_U7.X_U_CCT_U32.X3.YINT1)    0.0000                                   

(X_U5.X_U2_U7.X_U_CCT_U32.X3.YINT2)    0.0000                                   

(X_U5.X_U2_U7.X_U_CCT_U32.X3.YINT3)    0.0000                                   

(X_U6.X_U_wakeup_U_PCD_U13.X3.YINT)    0.0000                                   

(X_U6.X_U_wakeup_U_PWR_U15.X3.YINT)    0.0000                                   

(X_U6.X_U_wakeup_U_TRD_U63.X2.YINT)    0.0000                                   

(X_U6.X_U_wakeup_U_TRD_U64.X2.YINT)    0.0000                                   

(X_U5.X_U2_U3.X_U_SAMPLER_U12.MYVSS)    0.0000                                  

(X_U5.X_U2_U3.X_U_SAMPLER_U12.Qqqd1)    0.0000                                  

(X_U5.X_U2_U3.X_U_SAMPLER_U25.MYVSS)    0.0000                                  

(X_U5.X_U2_U3.X_U_SAMPLER_U25.Qqqd1)    0.0000                                  

(X_U5.X_U2_U3.X_U_SAMPLER_U62.reset)    1.0000                                  

(X_U5.X_U2_U3.X_U_SAMPLER_U63.reset)    1.0000                                  

(X_U5.X_U2_U3.X_U_SAMPLER_U66.YINT1)    0.0000                                  

(X_U5.X_U2_U3.X_U_SAMPLER_U66.YINT2)    0.0000                                  

(X_U5.X_U2_U3.X_U_SAMPLER_U66.YINT3)    1.0000                                  

(X_U5.X_U2_U3.X_U_SAMPLER_U67.MYVSS)    0.0000                                  

(X_U5.X_U2_U3.X_U_SAMPLER_U67.Qqqd1)    0.0000                                  

(X_U5.X_U2_U4.CNTLLAW_MINP_BUFFERED)    0.0000                                  

(X_U5.X_U2_U4.CNTLLAW_VLC_SCALED_UP)     .0435                                  

(X_U5.X_U2_U4.X_CNTLLAW_U12.X3.YINT)    0.0000                                  

(X_U5.X_U2_U4.X_CNTLLAW_U13.X3.YINT)    0.0000                                  

(X_U5.X_U2_U4.X_CNTLLAW_U30.X2.YINT)    0.0000                                  

(X_U5.X_U2_U4.X_CNTLLAW_U31.X2.YINT)    0.0000                                  

(X_U5.X_U2_U4.X_CNTLLAW_U32.X2.YINT)    0.0000                                  

(X_U5.X_U2_U4.X_CNTLLAW_U33.X2.YINT)    0.0000                                  

(X_U5.X_U2_U4.X_CNTLLAW_U34.X2.YINT)    0.0000                                  

(X_U5.X_U2_U5.U_MOD1_UPCC_N16778037)    0.0000                                  

(X_U5.X_U2_U5.U_MOD1_UPCC_N16778910)    0.0000                                  

(X_U5.X_U2_U5.U_MOD1_UPCC_N16779081)    0.0000                                  

(X_U5.X_U2_U5.U_MOD1_UPCC_N16779501)    0.0000                                  

(X_U5.X_U2_U5.U_MOD1_UPCC_N16780426)    0.0000                                  

(X_U5.X_U2_U5.U_MOD1_UPCC_N16780644)    0.0000                                  

(X_U5.X_U2_U5.U_MOD1_UPCC_N16781361)     .2000                                  

(X_U5.X_U2_U5.U_MOD1_UPCC_N16782156)    0.0000                                  

(X_U5.X_U2_U5.U_MOD1_UPCC_N16782718)     .2000                                  

(X_U5.X_U2_U5.U_MOD1_UPCC_N16784328)    0.0000                                  

(X_U5.X_U2_U5.U_MOD1_UPCC_N16790831)    0.0000                                  

(X_U5.X_U2_U5.U_MOD1_UPCC_N16792247)    0.0000                                  

(X_U5.X_U2_U5.U_MOD1_UPCC_N16792266)     .2000                                  

(X_U5.X_U2_U5.U_MOD1_UPCC_N16794167)     .2000                                  

(X_U5.X_U2_U5.U_MOD1_UPCC_N16794784)    0.0000                                  

(X_U5.X_U2_U5.U_MOD1_UPCC_N16798828) 333.3E-06                                  

(X_U5.X_U2_U5.U_MOD1_UPCC_N16812630)    1.5000                                  

(X_U5.X_U2_U5.U_MOD1_UPCC_N16815387)    0.0000                                  

(X_U5.X_U2_U5.U_MOD1_UPCC_N16842725)     .2000                                  

(X_U5.X_U2_U5.U_MOD1_UPCC_N16868329)    0.0000                                  

(X_U5.X_U2_U5.U_MOD1_UPCC_N16870446)    0.0000                                  

(X_U5.X_U2_U5.U_MOD1_UZD_UTDM_HI_5V)    5.0000                                  

(X_U5.X_U2_U5.X_U_MOD1_U33.X1.YINT1)    0.0000                                  

(X_U5.X_U2_U5.X_U_MOD1_U33.X1.YINT2)    0.0000                                  

(X_U5.X_U2_U5.X_U_MOD1_U33.X1.YINT3)    1.0000                                  

(X_U5.X_U2_U5.X_U_MOD1_U33.X3.YINT1)    0.0000                                  

(X_U5.X_U2_U5.X_U_MOD1_U33.X3.YINT2)    0.0000                                  

(X_U5.X_U2_U5.X_U_MOD1_U33.X3.YINT3)    0.0000                                  

(X_U5.X_U2_U5.X_U_MOD1_U34.X1.YINT1)    0.0000                                  

(X_U5.X_U2_U5.X_U_MOD1_U34.X1.YINT2)    0.0000                                  

(X_U5.X_U2_U5.X_U_MOD1_U34.X1.YINT3)    1.0000                                  

(X_U5.X_U2_U5.X_U_MOD1_U34.X3.YINT1)    0.0000                                  

(X_U5.X_U2_U5.X_U_MOD1_U34.X3.YINT2)    0.0000                                  

(X_U5.X_U2_U5.X_U_MOD1_U34.X3.YINT3)    0.0000                                  

(X_U5.X_U2_U5.X_U_MOD1_U35.X1.YINT1)    0.0000                                  

(X_U5.X_U2_U5.X_U_MOD1_U35.X1.YINT2)    0.0000                                  

(X_U5.X_U2_U5.X_U_MOD1_U35.X1.YINT3)    1.0000                                  

(X_U5.X_U2_U5.X_U_MOD1_U35.X3.YINT1)    0.0000                                  

(X_U5.X_U2_U5.X_U_MOD1_U35.X3.YINT2)    0.0000                                  

(X_U5.X_U2_U5.X_U_MOD1_U35.X3.YINT3)    0.0000                                  

(X_U5.X_U2_U5.X_U_MOD1_U39.X1.YINT1)    0.0000                                  

(X_U5.X_U2_U5.X_U_MOD1_U39.X1.YINT2)    0.0000                                  

(X_U5.X_U2_U5.X_U_MOD1_U39.X1.YINT3)    1.0000                                  

(X_U5.X_U2_U5.X_U_MOD1_U39.X3.YINT1)    0.0000                                  

(X_U5.X_U2_U5.X_U_MOD1_U39.X3.YINT2)    0.0000                                  

(X_U5.X_U2_U5.X_U_MOD1_U39.X3.YINT3)    0.0000                                  

(X_U5.X_U2_U5.X_U_MOD1_U41.X1.YINT1)    0.0000                                  

(X_U5.X_U2_U5.X_U_MOD1_U41.X1.YINT2)    0.0000                                  

(X_U5.X_U2_U5.X_U_MOD1_U41.X1.YINT3)    1.0000                                  

(X_U5.X_U2_U5.X_U_MOD1_U41.X3.YINT1)    0.0000                                  

(X_U5.X_U2_U5.X_U_MOD1_U41.X3.YINT2)    0.0000                                  

(X_U5.X_U2_U5.X_U_MOD1_U41.X3.YINT3)    0.0000                                  

(X_U5.X_U2_U5.X_U_MOD1_UPCC_U13.MY5)    1.0000                                  

(X_U5.X_U2_U5.X_U_MOD1_UPCC_U13.Qbr)    1.0000                                  

(X_U5.X_U2_U5.X_U_MOD1_UPCC_U13.Qqq) 260.3E-15                                  

(X_U5.X_U2_U5.X_U_MOD1_UPCC_U14.MY5)    1.0000                                  

(X_U5.X_U2_U5.X_U_MOD1_UPCC_U14.Qbr)    1.0000                                  

(X_U5.X_U2_U5.X_U_MOD1_UPCC_U14.Qqq) 260.3E-15                                  

(X_U5.X_U2_U5.X_U_MOD1_UZD_U12.YINT)    1.0000                                  

(X_U5.X_U2_U5.X_U_MOD1_UZD_U13.YINT)    0.0000                                  

(X_U5.X_U2_U5.X_U_MOD1_UZD_U14.Qint) 260.3E-15                                  

(X_U5.X_U2_U5.X_U_MOD1_UZD_U15.YINT)    0.0000                                  

(X_U5.X_U2_U5.X_U_MOD1_UZD_U16.YINT)    0.0000                                  

(X_U5.X_U2_U5.X_U_MOD1_UZD_U18.YINT)    0.0000                                  

(X_U5.X_U2_U5.X_U_MOD1_UZD_U19.YINT)    1.0000                                  

(X_U5.X_U2_U5.X_U_MOD1_UZD_U26.YINT)    0.0000                                  

(X_U5.X_U2_U5.X_U_MOD1_UZD_U28.YINT)    0.0000                                  

(X_U5.X_U2_U5.X_U_MOD1_UZD_U33.Qint) 260.3E-15                                  

(X_U5.X_U2_U5.X_U_MOD1_UZD_U34.Qint) 260.3E-15                                  

(X_U5.X_U2_U5.X_U_MOD1_UZD_U36.Qint) 260.3E-15                                  

(X_U5.X_U2_U5.X_U_MOD1_UZD_U37.Qint) 260.3E-15                                  

(X_U5.X_U2_U5.X_U_MOD1_UZD_U38.Yint)    1.0000                                  

(X_U5.X_U2_U5.X_U_MOD1_UZD_U39.YINT)    1.0000                                  

(X_U5.X_U2_U5.X_U_MOD1_UZD_U40.YINT)    0.0000                                  

(X_U5.X_U2_U5.X_U_MOD1_UZD_U45.YINT)    1.0000                                  

(X_U5.X_U2_U5.X_U_MOD1_UZD_U48.YINT)    1.0000                                  

(X_U5.X_U2_U5.X_U_MOD1_UZD_U50.YINT)    1.0000                                  

(X_U5.X_U2_U5.X_U_MOD1_UZD_U51.YINT)    0.0000                                  

(X_U5.X_U2_U5.X_U_MOD1_UZD_U52.YINT)    1.0000                                  

(X_U5.X_U2_U5.X_U_MOD1_UZD_U53.YINT)    0.0000                                  

(X_U5.X_U2_U5.X_U_MOD1_UZD_U60.YINT)    1.0000                                  

(X_U5.X_U2_U5.X_U_MOD1_UZD_U61.YINT)    0.0000                                  

(X_U5.X_U2_U5.X_U_MOD1_UZD_U66.YINT)    0.0000                                  

(X_U5.X_U2_U5.X_U_MOD1_UZD_U67.YINT)    1.0000                                  

(X_U5.X_U2_U5.X_U_MOD1_UZD_U9.MYVSS)    0.0000                                  

(X_U5.X_U2_U5.X_U_MOD1_UZD_U9.Qqqd1)    0.0000                                  

(X_U6.X_U_wakeup_U_TRD_U63.X1.YINT1)    0.0000                                  

(X_U6.X_U_wakeup_U_TRD_U63.X1.YINT2)    0.0000                                  

(X_U6.X_U_wakeup_U_TRD_U63.X1.YINT3)    1.0000                                  

(X_U6.X_U_wakeup_U_TRD_U63.X3.YINT1)    0.0000                                  

(X_U6.X_U_wakeup_U_TRD_U63.X3.YINT2)    0.0000                                  

[...]

(X_U5.X_U2_U5.X_U_MOD1_UZD_U52.YINT)    1.0000                                  

(X_U5.X_U2_U5.X_U_MOD1_UZD_U53.YINT)    0.0000                                  

(X_U5.X_U2_U5.X_U_MOD1_UZD_U60.YINT)    1.0000                                  

(X_U5.X_U2_U5.X_U_MOD1_UZD_U61.YINT)    0.0000                                  

(X_U5.X_U2_U5.X_U_MOD1_UZD_U66.YINT)    0.0000                                  

(X_U5.X_U2_U5.X_U_MOD1_UZD_U67.YINT)    1.0000                                  

(X_U5.X_U2_U5.X_U_MOD1_UZD_U9.MYVSS)    0.0000                                  

(X_U5.X_U2_U5.X_U_MOD1_UZD_U9.Qqqd1)    0.0000                                  

(X_U6.X_U_wakeup_U_TRD_U63.X1.YINT1)    0.0000                                  

(X_U6.X_U_wakeup_U_TRD_U63.X1.YINT2)    0.0000                                  

(X_U6.X_U_wakeup_U_TRD_U63.X1.YINT3)    1.0000                                  

(X_U6.X_U_wakeup_U_TRD_U63.X3.YINT1)    0.0000                                  

(X_U6.X_U_wakeup_U_TRD_U63.X3.YINT2)    0.0000                                  

(X_U6.X_U_wakeup_U_TRD_U63.X3.YINT3)    0.0000                                  

(X_U6.X_U_wakeup_U_TRD_U64.X1.YINT1)    0.0000                                  

(X_U6.X_U_wakeup_U_TRD_U64.X1.YINT2)    0.0000                                  

(X_U6.X_U_wakeup_U_TRD_U64.X1.YINT3)    1.0000                                  

(X_U6.X_U_wakeup_U_TRD_U64.X3.YINT1)    0.0000                                  

(X_U6.X_U_wakeup_U_TRD_U64.X3.YINT2)    0.0000                                  

(X_U6.X_U_wakeup_U_TRD_U64.X3.YINT3)    0.0000                                  

(X_U5.X_U2_U3.X_U_SAMPLER_U25.CLKdel)     .2000                                 

(X_U5.X_U2_U3.X_U_SAMPLER_U25.CLKint)    0.0000                                 

(X_U5.X_U2_U3.X_U_SAMPLER_U62.reset2)     .6341                                 

(X_U5.X_U2_U3.X_U_SAMPLER_U63.reset2)     .6341                                 

(X_U5.X_U2_U3.X_U_SAMPLER_U67.CLKdel)     .2000                                 

(X_U5.X_U2_U3.X_U_SAMPLER_U67.CLKint)    0.0000                                 

(X_U5.X_U2_U3.X_U_SAMPLER_U7.X3.YINT)    0.0000                                 

(X_U5.X_U2_U3.X_U_SAMPLER_U8.X3.YINT)    0.0000                                 

(X_U5.X_U2_U4.X_CNTLLAW_U30.X1.YINT1)    0.0000                                 

(X_U5.X_U2_U4.X_CNTLLAW_U30.X1.YINT2)    0.0000                                 

(X_U5.X_U2_U4.X_CNTLLAW_U30.X1.YINT3)    1.0000                                 

(X_U5.X_U2_U4.X_CNTLLAW_U30.X3.YINT1)    0.0000                                 

(X_U5.X_U2_U4.X_CNTLLAW_U30.X3.YINT2)    0.0000                                 

(X_U5.X_U2_U4.X_CNTLLAW_U30.X3.YINT3)    0.0000                                 

(X_U5.X_U2_U4.X_CNTLLAW_U31.X1.YINT1)    0.0000                                 

(X_U5.X_U2_U4.X_CNTLLAW_U31.X1.YINT2)    0.0000                                 

(X_U5.X_U2_U4.X_CNTLLAW_U31.X1.YINT3)    1.0000                                 

(X_U5.X_U2_U4.X_CNTLLAW_U31.X3.YINT1)    0.0000                                 

(X_U5.X_U2_U4.X_CNTLLAW_U31.X3.YINT2)    0.0000                                 

(X_U5.X_U2_U4.X_CNTLLAW_U31.X3.YINT3)    0.0000                                 

(X_U5.X_U2_U4.X_CNTLLAW_U32.X1.YINT1)    0.0000                                 

(X_U5.X_U2_U4.X_CNTLLAW_U32.X1.YINT2)    0.0000                                 

(X_U5.X_U2_U4.X_CNTLLAW_U32.X1.YINT3)    1.0000                                 

(X_U5.X_U2_U4.X_CNTLLAW_U32.X3.YINT1)    0.0000                                 

(X_U5.X_U2_U4.X_CNTLLAW_U32.X3.YINT2)    0.0000                                 

(X_U5.X_U2_U4.X_CNTLLAW_U32.X3.YINT3)    0.0000                                 

(X_U5.X_U2_U4.X_CNTLLAW_U33.X1.YINT1)    0.0000                                 

(X_U5.X_U2_U4.X_CNTLLAW_U33.X1.YINT2)    0.0000                                 

(X_U5.X_U2_U4.X_CNTLLAW_U33.X1.YINT3)    1.0000                                 

(X_U5.X_U2_U4.X_CNTLLAW_U33.X3.YINT1)    0.0000                                 

(X_U5.X_U2_U4.X_CNTLLAW_U33.X3.YINT2)    0.0000                                 

(X_U5.X_U2_U4.X_CNTLLAW_U33.X3.YINT3)    0.0000                                 

(X_U5.X_U2_U4.X_CNTLLAW_U34.X1.YINT1)    0.0000                                 

(X_U5.X_U2_U4.X_CNTLLAW_U34.X1.YINT2)    0.0000                                 

(X_U5.X_U2_U4.X_CNTLLAW_U34.X1.YINT3)    1.0000                                 

(X_U5.X_U2_U4.X_CNTLLAW_U34.X3.YINT1)    0.0000                                 

(X_U5.X_U2_U4.X_CNTLLAW_U34.X3.YINT2)    0.0000                                 

(X_U5.X_U2_U4.X_CNTLLAW_U34.X3.YINT3)    0.0000                                 

(X_U5.X_U2_U5.X_U_MOD1_UPCC_U13.Qint) 260.3E-15                                 

(X_U5.X_U2_U5.X_U_MOD1_UPCC_U14.Qint) 260.3E-15                                 

(X_U5.X_U2_U5.X_U_MOD1_UPCC_U40.YINT)    1.0000                                 

(X_U5.X_U2_U5.X_U_MOD1_UPCC_U42.YINT)    1.0000                                 

(X_U5.X_U2_U5.X_U_MOD1_UPCC_U43.YINT)    1.0000                                 

(X_U5.X_U2_U5.X_U_MOD1_UPCC_U44.YINT)    1.0000                                 

(X_U5.X_U2_U5.X_U_MOD1_UPCC_U45.YINT)    1.0000                                 

(X_U5.X_U2_U5.X_U_MOD1_UPCC_U46.YINT)    0.0000                                 

(X_U5.X_U2_U5.X_U_MOD1_UPCC_U47.YINT)    0.0000                                 

(X_U5.X_U2_U5.X_U_MOD1_UPCC_U48.YINT)    0.0000                                 

(X_U5.X_U2_U5.X_U_MOD1_UPCC_U49.YINT)    0.0000                                 

(X_U5.X_U2_U5.X_U_MOD1_UPCC_U50.YINT)    0.0000                                 

(X_U5.X_U2_U5.X_U_MOD1_UPCC_U52.YINT)    0.0000                                 

(X_U5.X_U2_U5.X_U_MOD1_UPCC_U56.Yint)    0.0000                                 

(X_U5.X_U2_U5.X_U_MOD1_UPCC_U57.Yint)    0.0000                                 

(X_U5.X_U2_U5.X_U_MOD1_UPCC_U60.YINT)    1.0000                                 

(X_U5.X_U2_U5.X_U_MOD1_UPCC_U62.meas)    0.0000                                 

(X_U5.X_U2_U5.X_U_MOD1_UZD_U14.MYVSS)    0.0000                                 

(X_U5.X_U2_U5.X_U_MOD1_UZD_U14.Qqqd1)    0.0000                                 

(X_U5.X_U2_U5.X_U_MOD1_UZD_U17.YINT1)    0.0000                                 

(X_U5.X_U2_U5.X_U_MOD1_UZD_U17.YINT2)    0.0000                                 

(X_U5.X_U2_U5.X_U_MOD1_UZD_U17.YINT3)    0.0000                                 

(X_U5.X_U2_U5.X_U_MOD1_UZD_U27.YINT1)    0.0000                                 

(X_U5.X_U2_U5.X_U_MOD1_UZD_U27.YINT2)    0.0000                                 

(X_U5.X_U2_U5.X_U_MOD1_UZD_U27.YINT3)    0.0000                                 

(X_U5.X_U2_U5.X_U_MOD1_UZD_U33.MYVSS)    0.0000                                 

(X_U5.X_U2_U5.X_U_MOD1_UZD_U33.Qqqd1)    0.0000                                 

(X_U5.X_U2_U5.X_U_MOD1_UZD_U34.MYVSS)    0.0000                                 

(X_U5.X_U2_U5.X_U_MOD1_UZD_U34.Qqqd1)    0.0000                                 

(X_U5.X_U2_U5.X_U_MOD1_UZD_U36.MYVSS)    0.0000                                 

(X_U5.X_U2_U5.X_U_MOD1_UZD_U36.Qqqd1)    0.0000                                 

(X_U5.X_U2_U5.X_U_MOD1_UZD_U37.MYVSS)    0.0000                                 

(X_U5.X_U2_U5.X_U_MOD1_UZD_U37.Qqqd1)    0.0000                                 

(X_U5.X_U2_U5.X_U_MOD1_UZD_U9.CLKdel)     .2000                                 

(X_U5.X_U2_U5.X_U_MOD1_UZD_U9.CLKint)    0.0000                                 

(X_U5.X_U2_U3.X_U_SAMPLER_U12.X3.YINT)    0.0000                                

(X_U5.X_U2_U3.X_U_SAMPLER_U25.X2.YINT)    0.0000                                

(X_U5.X_U2_U3.X_U_SAMPLER_U67.X2.YINT)    0.0000                                

(X_U5.X_U2_U5.U_MOD1_UZD_UTDM_N430747)    0.0000                                

(X_U5.X_U2_U5.U_MOD1_UZD_UTDM_N430977)     .2000                                

(X_U5.X_U2_U5.U_MOD1_UZD_UTDM_N431317)     .2000                                

(X_U5.X_U2_U5.U_MOD1_UZD_UTDM_N432126)    0.0000                                

(X_U5.X_U2_U5.U_MOD1_UZD_UTDM_N432243) 625.0E-06                                

(X_U5.X_U2_U5.U_MOD1_U_MINP_N16772883)     .2000                                

(X_U5.X_U2_U5.U_MOD1_U_MINP_N16773089)     .2000                                

(X_U5.X_U2_U5.U_MOD1_U_MINP_N16773395)     .2000                                

(X_U5.X_U2_U5.U_MOD1_U_MINP_N16773409)    0.0000                                

(X_U5.X_U2_U5.U_MOD1_U_MINP_N16773413)     .2000                                

(X_U5.X_U2_U5.U_MOD1_U_MINP_N16773447)    0.0000                                

(X_U5.X_U2_U5.U_MOD1_U_MINP_N16773457) 30.14E-09                                

(X_U5.X_U2_U5.U_MOD1_U_MINP_N16773495)    4.0000                                

(X_U5.X_U2_U5.U_MOD1_U_MINP_N16773519)    0.0000                                

(X_U5.X_U2_U5.U_MOD1_U_MINP_N16773613)-22.06E-30                                

(X_U5.X_U2_U5.U_MOD1_U_MINP_N16773657)     .2000                                

(X_U5.X_U2_U5.U_MOD1_U_MINP_N16787552)    0.0000                                

(X_U5.X_U2_U5.U_MOD1_U_MINP_N16787626) 840.0E-06                                

(X_U5.X_U2_U5.U_MOD1_U_MINP_N16788329)    4.0000                                

(X_U5.X_U2_U5.X_U_MOD1_UPCC_U13.MYVSS)    0.0000                                

(X_U5.X_U2_U5.X_U_MOD1_UPCC_U13.Qqqd1)    0.0000                                

(X_U5.X_U2_U5.X_U_MOD1_UPCC_U14.MYVSS)    0.0000                                

(X_U5.X_U2_U5.X_U_MOD1_UPCC_U14.Qqqd1)    0.0000                                

(X_U5.X_U2_U5.X_U_MOD1_UPCC_U61.YINT1)    0.0000                                

(X_U5.X_U2_U5.X_U_MOD1_UPCC_U61.YINT2)    0.0000                                

(X_U5.X_U2_U5.X_U_MOD1_UPCC_U61.YINT3)    0.0000                                

(X_U5.X_U2_U5.X_U_MOD1_UPCC_U62.reset)    1.0000                                

(X_U5.X_U2_U5.X_U_MOD1_UZD_U33.CLKdel)     .2000                                

(X_U5.X_U2_U5.X_U_MOD1_UZD_U33.CLKint)    0.0000                                

(X_U5.X_U2_U5.X_U_MOD1_UZD_U34.CLKdel)     .2000                                

(X_U5.X_U2_U5.X_U_MOD1_UZD_U34.CLKint)    0.0000                                

(X_U5.X_U2_U5.X_U_MOD1_UZD_U36.CLKdel)     .2000                                

(X_U5.X_U2_U5.X_U_MOD1_UZD_U36.CLKint)    0.0000                                

(X_U5.X_U2_U5.X_U_MOD1_UZD_U37.CLKdel)     .2000                                

(X_U5.X_U2_U5.X_U_MOD1_UZD_U37.CLKint)    0.0000                                

(X_U5.X_U2_U5.X_U_MOD1_UZD_U9.X2.YINT)    0.0000                                

(X_U5.X_U2_U5.X_U_MOD1_U_MINP_U41.MY5)    1.0000                                

(X_U5.X_U2_U5.X_U_MOD1_U_MINP_U41.Qbr)    1.0000                                

(X_U5.X_U2_U5.X_U_MOD1_U_MINP_U41.Qqq) 260.3E-15                                

(X_U5.X_U2_U5.X_U_MOD1_U_MINP_U9.YINT)    1.0000                                

(X_U5.X_U2_U3.X_U_SAMPLER_U25.X1.YINT1)    0.0000                               

(X_U5.X_U2_U3.X_U_SAMPLER_U25.X1.YINT2)    0.0000                               

(X_U5.X_U2_U3.X_U_SAMPLER_U25.X1.YINT3)    1.0000                               

(X_U5.X_U2_U3.X_U_SAMPLER_U25.X3.YINT1)    0.0000                               

(X_U5.X_U2_U3.X_U_SAMPLER_U25.X3.YINT2)    0.0000                               

(X_U5.X_U2_U3.X_U_SAMPLER_U25.X3.YINT3)    0.0000                               

(X_U5.X_U2_U3.X_U_SAMPLER_U67.X1.YINT1)    0.0000                               

(X_U5.X_U2_U3.X_U_SAMPLER_U67.X1.YINT2)    0.0000                               

(X_U5.X_U2_U3.X_U_SAMPLER_U67.X1.YINT3)    1.0000                               

(X_U5.X_U2_U3.X_U_SAMPLER_U67.X3.YINT1)    0.0000                               

(X_U5.X_U2_U3.X_U_SAMPLER_U67.X3.YINT2)    0.0000                               

(X_U5.X_U2_U3.X_U_SAMPLER_U67.X3.YINT3)    0.0000                               

(X_U5.X_U2_U5.X_U_MOD1_UPCC_U62.reset2)     .6341                               

(X_U5.X_U2_U5.X_U_MOD1_UZD_U14.X3.YINT)    0.0000                               

(X_U5.X_U2_U5.X_U_MOD1_UZD_U33.X2.YINT)    0.0000                               

(X_U5.X_U2_U5.X_U_MOD1_UZD_U34.X2.YINT)    0.0000                               

(X_U5.X_U2_U5.X_U_MOD1_UZD_U36.X2.YINT)    0.0000                               

(X_U5.X_U2_U5.X_U_MOD1_UZD_U37.X2.YINT)    0.0000                               

(X_U5.X_U2_U5.X_U_MOD1_UZD_U9.X1.YINT1)    0.0000                               

(X_U5.X_U2_U5.X_U_MOD1_UZD_U9.X1.YINT2)    0.0000                               

(X_U5.X_U2_U5.X_U_MOD1_UZD_U9.X1.YINT3)    1.0000                               

(X_U5.X_U2_U5.X_U_MOD1_UZD_U9.X3.YINT1)    0.0000                               

(X_U5.X_U2_U5.X_U_MOD1_UZD_U9.X3.YINT2)    0.0000                               

(X_U5.X_U2_U5.X_U_MOD1_UZD_U9.X3.YINT3)    0.0000                               

(X_U5.X_U2_U5.X_U_MOD1_U_MINP_U12.YINT)    1.0000                               

(X_U5.X_U2_U5.X_U_MOD1_U_MINP_U41.Qint) 260.3E-15                               

(X_U5.X_U2_U5.X_U_MOD1_U_MINP_U46.YINT)    0.0000                               

(X_U5.X_U2_U5.X_U_MOD1_U_MINP_U52.YINT)    1.0000                               

(X_U5.X_U2_U5.X_U_MOD1_U_MINP_U56.YINT)    0.0000                               

(X_U5.X_U2_U5.X_U_MOD1_U_MINP_U57.Yint)    0.0000                               

(X_U5.X_U2_U5.X_U_MOD1_U_MINP_U69.YINT)    0.0000                               

(X_U5.X_U2_U5.X_U_MOD1_U_MINP_U86.YINT)    1.0000                               

(X_U5.X_U2_U3.U_SAMPLER_U_op1_N16693585)    4.8600                              

(X_U5.X_U2_U3.U_SAMPLER_U_op1_N16693617)    9.5555                              

(X_U5.X_U2_U3.U_SAMPLER_U_op1_N16693863)     .1400                              

(X_U5.X_U2_U3.U_SAMPLER_U_op2_N16693585)    4.8600                              

(X_U5.X_U2_U3.U_SAMPLER_U_op2_N16693617)   -2.7599                              

(X_U5.X_U2_U3.U_SAMPLER_U_op2_N16693863)     .1400                              

(X_U5.X_U2_U5.U_MOD1_UZD_u_TIMER_N00070)    5.0000                              

(X_U5.X_U2_U5.X_U_MOD1_UPCC_U13.X3.YINT)    0.0000                              

(X_U5.X_U2_U5.X_U_MOD1_UPCC_U14.X3.YINT)    0.0000                              

(X_U5.X_U2_U5.X_U_MOD1_UZD_U33.X1.YINT1)    0.0000                              

(X_U5.X_U2_U5.X_U_MOD1_UZD_U33.X1.YINT2)    0.0000                              

(X_U5.X_U2_U5.X_U_MOD1_UZD_U33.X1.YINT3)    1.0000                              

(X_U5.X_U2_U5.X_U_MOD1_UZD_U33.X3.YINT1)    0.0000                              

(X_U5.X_U2_U5.X_U_MOD1_UZD_U33.X3.YINT2)    0.0000                              

(X_U5.X_U2_U5.X_U_MOD1_UZD_U33.X3.YINT3)    0.0000                              

(X_U5.X_U2_U5.X_U_MOD1_UZD_U34.X1.YINT1)    0.0000                              

(X_U5.X_U2_U5.X_U_MOD1_UZD_U34.X1.YINT2)    0.0000                              

(X_U5.X_U2_U5.X_U_MOD1_UZD_U34.X1.YINT3)    1.0000                              

(X_U5.X_U2_U5.X_U_MOD1_UZD_U34.X3.YINT1)    0.0000                              

(X_U5.X_U2_U5.X_U_MOD1_UZD_U34.X3.YINT2)    0.0000                              

(X_U5.X_U2_U5.X_U_MOD1_UZD_U34.X3.YINT3)    0.0000                              

(X_U5.X_U2_U5.X_U_MOD1_UZD_U36.X1.YINT1)    0.0000                              

(X_U5.X_U2_U5.X_U_MOD1_UZD_U36.X1.YINT2)    0.0000                              

(X_U5.X_U2_U5.X_U_MOD1_UZD_U36.X1.YINT3)    1.0000                              

(X_U5.X_U2_U5.X_U_MOD1_UZD_U36.X3.YINT1)    0.0000                              

(X_U5.X_U2_U5.X_U_MOD1_UZD_U36.X3.YINT2)    0.0000                              

(X_U5.X_U2_U5.X_U_MOD1_UZD_U36.X3.YINT3)    0.0000                              

(X_U5.X_U2_U5.X_U_MOD1_UZD_U37.X1.YINT1)    0.0000                              

(X_U5.X_U2_U5.X_U_MOD1_UZD_U37.X1.YINT2)    0.0000                              

(X_U5.X_U2_U5.X_U_MOD1_UZD_U37.X1.YINT3)    1.0000                              

(X_U5.X_U2_U5.X_U_MOD1_UZD_U37.X3.YINT1)    0.0000                              

(X_U5.X_U2_U5.X_U_MOD1_UZD_U37.X3.YINT2)    0.0000                              

(X_U5.X_U2_U5.X_U_MOD1_UZD_U37.X3.YINT3)    0.0000                              

(X_U5.X_U2_U5.X_U_MOD1_UZD_UTDM_U41.MY5)    1.0000                              

(X_U5.X_U2_U5.X_U_MOD1_UZD_UTDM_U41.Qbr)    1.0000                              

(X_U5.X_U2_U5.X_U_MOD1_UZD_UTDM_U41.Qqq) 260.3E-15                              

(X_U5.X_U2_U5.X_U_MOD1_U_MINP_U41.MYVSS)    0.0000                              

(X_U5.X_U2_U5.X_U_MOD1_U_MINP_U41.Qqqd1)    0.0000                              

(X_U5.X_U2_U3.U_SAMPLER_U_AMP1_N16693585)    4.8600                             

(X_U5.X_U2_U3.U_SAMPLER_U_AMP1_N16693617) -356.2500                             

(X_U5.X_U2_U3.U_SAMPLER_U_AMP1_N16693863)     .1400                             

(X_U5.X_U2_U5.U_MOD1_UZD_u_TIMER_N376887)    0.0000                             

(X_U5.X_U2_U5.U_MOD1_UZD_u_TIMER_N377086)     .2000                             

(X_U5.X_U2_U5.U_MOD1_UZD_u_TIMER_N377594)    3.0000                             

(X_U5.X_U2_U5.U_MOD1_UZD_u_TIMER_N435973)     .2000                             

(X_U5.X_U2_U5.U_MOD1_UZD_u_TIMER_N436855)    0.0000                             

(X_U5.X_U2_U5.X_U_MOD1_UZD_UTDM_U40.YINT)    1.0000                             

(X_U5.X_U2_U5.X_U_MOD1_UZD_UTDM_U41.Qint) 260.3E-15                             

(X_U5.X_U2_U5.X_U_MOD1_UZD_UTDM_U46.YINT)    0.0000                             

(X_U5.X_U2_U5.X_U_MOD1_UZD_UTDM_U47.Yint)    0.0000                             

(X_U5.X_U2_U5.X_U_MOD1_U_MINP_U41.CLKdel)     .2000                             

(X_U5.X_U2_U5.X_U_MOD1_U_MINP_U41.CLKint)    0.0000                             

(X_U5.X_U2_U5.X_U_MOD1_UZD_UTDM_U41.MYVSS)    0.0000                            

(X_U5.X_U2_U5.X_U_MOD1_UZD_UTDM_U41.Qqqd1)    0.0000                            

(X_U5.X_U2_U5.X_U_MOD1_U_MINP_U41.X2.YINT)    0.0000                            

(X_U5.X_U2_U5.X_U_MOD1_UZD_UTDM_U41.CLKdel)     .2000                           

(X_U5.X_U2_U5.X_U_MOD1_UZD_UTDM_U41.CLKint)    0.0000                           

(X_U5.X_U2_U5.X_U_MOD1_UZD_u_TIMER_U32.MY5)    1.0000                           

(X_U5.X_U2_U5.X_U_MOD1_UZD_u_TIMER_U32.Qbr)    1.0000                           

(X_U5.X_U2_U5.X_U_MOD1_UZD_u_TIMER_U32.Qqq) 260.3E-15                           

(X_U5.X_U2_U5.X_U_MOD1_U_MINP_U41.X1.YINT1)    0.0000                           

(X_U5.X_U2_U5.X_U_MOD1_U_MINP_U41.X1.YINT2)    0.0000                           

(X_U5.X_U2_U5.X_U_MOD1_U_MINP_U41.X1.YINT3)    1.0000                           

(X_U5.X_U2_U5.X_U_MOD1_U_MINP_U41.X3.YINT1)    0.0000                           

(X_U5.X_U2_U5.X_U_MOD1_U_MINP_U41.X3.YINT2)    0.0000                           

(X_U5.X_U2_U5.X_U_MOD1_U_MINP_U41.X3.YINT3)    0.0000                           

(X_U5.X_U2_U5.X_U_MOD1_UZD_UTDM_U41.X2.YINT)    0.0000                          

(X_U5.X_U2_U5.X_U_MOD1_UZD_u_TIMER_U32.Qint) 260.3E-15                          

(X_U5.X_U2_U5.X_U_MOD1_UZD_u_TIMER_U42.YINT)    1.0000                          

(X_U5.X_U2_U5.X_U_MOD1_UZD_u