
**** 02/16/23 16:22:31 ******* PSpice 17.4.0 (Nov 2018) ******* ID# 0 ********

 ** Profile: "OPAMP-test"  [ d:\users\mbt0c\onedrive\dokumente\southampton\part 2\d5\d5 psu\smps-PSpiceFiles\OPAMP\test.sim ] 


 ****     CIRCUIT DESCRIPTION


******************************************************************************




** Creating circuit file "test.cir" 
** WARNING: THIS AUTOMATICALLY GENERATED FILE MAY BE OVERWRITTEN BY SUBSEQUENT SIMULATIONS

*Libraries: 
* Profile Libraries :
* Local Libraries :
.LIB "../../../smps-pspicefiles/smps.lib" 
.LIB "../../../3rd party spice models/simulation_model_coolmos_p7_mosfet_700v_spice.lib" 
.LIB "../../../3rd party spice models/ucc24650_netlist.lib" 
.LIB "../../../3rd party spice models/ucc28730_netlist.lib" 
.LIB "../../../3rd party spice models/st_field_effect_ rectifier_v7.lib" 
.LIB "../../../3rd party spice models/we-fb.lib" 
.LIB "../../../transformer.lib" 
.LIB "../../../3rd party spice models/stn9360.lib" 
* From [PSPICE NETLIST] section of C:\SPB_DATA\cdssetup\OrCAD_PSpice\17.4.0\PSpice.ini file:
.lib "nom.lib" 

*Analysis directives: 
.TRAN  0 1 0 1u SKIPBP 
.OPTIONS PREORDER
.OPTIONS ADVCONV
.OPTIONS LIMIT= 1e10
.PROBE64 V(alias(*)) I(alias(*)) W(alias(*)) D(alias(*)) NOISE(alias(*)) 
.INC "..\OPAMP.net" 



**** INCLUDING OPAMP.net ****
* source SMPS
X_U1A         N02665 N02628 N02669 0 N02602 LM324/NS
R_R1         N02628 N02602  4k TC=0,0 
R_R2         N02628 0  2k TC=0,0 
R_R3         N02665 N02931  10k TC=0,0 
C_C1         0 N02665  1u  TC=0,0 
V_V1         N02931 0 DC 0 AC 0
+PULSE 0 3.3 0 1n 1n 23u 100u
V_V2         N02669 0 15

**** RESUMING test.cir ****
.END

**** 02/16/23 16:22:31 ******* PSpice 17.4.0 (Nov 2018) ******* ID# 0 ********

 ** Profile: "OPAMP-test"  [ d:\users\mbt0c\onedrive\dokumente\southampton\part 2\d5\d5 psu\smps-PSpiceFiles\OPAMP\test.sim ] 


 ****     Diode MODEL PARAMETERS


******************************************************************************




               X_U1A.DX        
          IS    1.000000E-15 


**** 02/16/23 16:22:31 ******* PSpice 17.4.0 (Nov 2018) ******* ID# 0 ********

 ** Profile: "OPAMP-test"  [ d:\users\mbt0c\onedrive\dokumente\southampton\part 2\d5\d5 psu\smps-PSpiceFiles\OPAMP\test.sim ] 


 ****     BJT MODEL PARAMETERS


******************************************************************************




               X_U1A.QX        
               PNP             
       LEVEL    1            
          IS  100.000000E-18 
          BF    1.111000E+03 
          NF    1            
          BR    1            
          NR    1            
         ISS    0            
          RE    0            
          RC    0            
         CJE    0            
         VJE     .75         
         CJC    0            
         VJC     .75         
         MJC     .33         
        XCJC    1            
         CJS    0            
         VJS     .75         
          KF    0            
          AF    1            
          CN    2.2          
           D     .52         

Reducing minimum delta to make the circuit converge.
Reducing minimum delta to make the circuit converge.
Reducing minimum delta to make the circuit converge.
Reducing minimum delta to make the circuit converge.
Reducing minimum delta to make the circuit converge.
Reducing minimum delta to make the circuit converge.
Reducing minimum delta to make the circuit converge.

ERROR(ORPSIM-15138): Convergence problem in Transient Analysis at Time =  10.49E-12.
         Time step =  149.0E-21, minimum allowable step size =  1.000E-18

  These supply currents failed to converge:

    I(X_U1A.EOS)              =         0A  \    7.451nA
    I(X_U1A.EH)               =   868.66nA  \   391.82nA



  Last node voltages tried were:

 NODE   VOLTAGE     NODE   VOLTAGE     NODE   VOLTAGE     NODE   VOLTAGE


(N02602)    7.3931 (N02628)    2.4612 (N02665) 21.67E-06 (N02669)   15.0000     

(N02931)     .0346 (X_U1A.3)    1.2306                   (X_U1A.4)    3.1757    

(X_U1A.5)     .0681                   (X_U1A.6)    -.0164                       

(X_U1A.7)    2.6042                   (X_U1A.8)   13.3700                       

(X_U1A.9)    7.5000                   (X_U1A.10)     .6350                      

(X_U1A.15)    7.5000                  (X_U1A.16)   10.1020                      

(X_U1A.17)   10.1030                  (X_U1A.20)    7.6583                      

(X_U1A.21)    7.1183                  (X_U1A.22)    7.3883                      

(X_U1A.23)    7.5000                  (X_U1A.24)    7.5000                      

(X_U1A.25)    7.4784                  (X_U1A.26)    8.0183                      

(X_U1A.27)    6.7583                  (X_U1A.49)    7.5000                      

(X_U1A.98)    7.5000                  


**** Interrupt ****
**** Param: RELTOL = 0.001
**** Param: ABSTOL = 1e-12
**** Param: VNTOL = 1e-06
**** Param: GMIN = 1e-12
**** Param: TSTOP = 1
**** Param: TMAX = 1e-06
**** Param: ITL1 = 150
**** Param: ITL2 = 20
**** Param: ITL4 = 100
**** Param: AutoConverge = 1
**** Param: AutoConverge.ITL1 = 1000
**** Param: AutoConverge.ITL2 = 1000
**** Param: AutoConverge.ITL4 = 1000
**** Param: AutoConverge.RELTOL = 0.05
**** Param: AutoConverge.ABSTOL = 0.001
**** Param: AutoConverge.VNTOL = 0.001
**** Param: AutoConverge.PIVTOL = 1e-10
**** Param: ADVCONV = 1
**** Param: Current_Simulation = 3
**** Param: METHOD = 0
**** Param: TRTOL = 7
**** Param: STEPGMIN = 0
**** Param: GMINSTEPS = 0
**** Param: ITL6 = 0
**** Param: NOSTEPDEP = 0
**** Param: PTRANSTEP = 0
**** Param: GMINSRC = 0
**** Param: PSEUDOTRAN = 0
**** Param: NOSTEPSRC = 0
Convergence problem in transient analysis at Time =  10.49E-12
         Time step =  298.0E-21, minimum allowable step size =  1.000E-18

  These supply currents failed to converge:

    I(X_U1A.EOS)              =         0A  \    29.80nA
    I(X_U1A.EH)               =   -1.039uA  \   868.66nA
    I(V_V2)                   =   -1.232mA  \   -1.234mA



  Last node voltages tried were:

 NODE   VOLTAGE     NODE   VOLTAGE     NODE   VOLTAGE     NODE   VOLTAGE


(N02602)    7.3931 (N02628)    2.4612 (N02665) 21.67E-06 (N02669)   15.0000     

(N02931)     .0346 (X_U1A.3)    1.2306                   (X_U1A.4)    3.1757    

(X_U1A.5)     .0681                   (X_U1A.6)    -.0164                       

(X_U1A.7)    2.6042                   (X_U1A.8)   13.3700                       

(X_U1A.9)    7.5000                   (X_U1A.10)     .6350                      

(X_U1A.15)    7.5000                  (X_U1A.16)   10.1020                      

(X_U1A.17)   10.1030                  (X_U1A.20)    7.6583                      

(X_U1A.21)    7.1183                  (X_U1A.22)    7.3883                      

(X_U1A.23)    7.5000                  (X_U1A.24)    7.5000                      

(X_U1A.25)    7.4784                  (X_U1A.26)    8.0183                      

(X_U1A.27)    6.7583                  (X_U1A.49)    7.5000                      

(X_U1A.98)    7.5000                  

Resuming Simulation with the following settings
ITL4 = 354
ABSTOL = 1.41e-09

Convergence problem in transient analysis at Time =  10.49E-12
         Time step =  298.0E-21, minimum allowable step size =  1.000E-18

  These supply currents failed to converge:

    I(X_U1A.EOS)              =         0A  \    29.80nA



  Last node voltages tried were:

 NODE   VOLTAGE     NODE   VOLTAGE     NODE   VOLTAGE     NODE   VOLTAGE


(N02602)    7.3931 (N02628)    2.4612 (N02665) 21.67E-06 (N02669)   15.0000     

(N02931)     .0346 (X_U1A.3)    1.2306                   (X_U1A.4)    3.1757    

(X_U1A.5)     .0681                   (X_U1A.6)    -.0164                       

(X_U1A.7)    2.6042                   (X_U1A.8)   13.3700                       

(X_U1A.9)    7.5000                   (X_U1A.10)     .6350                      

(X_U1A.15)    7.5000                  (X_U1A.16)   10.1020                      

(X_U1A.17)   10.1030                  (X_U1A.20)    7.6583                      

(X_U1A.21)    7.1183                  (X_U1A.22)    7.3883                      

(X_U1A.23)    7.5000                  (X_U1A.24)    7.5000                      

(X_U1A.25)    7.4784                  (X_U1A.26)    8.0183                      

(X_U1A.27)    6.7583                  (X_U1A.49)    7.5000                      

(X_U1A.98)    7.5000                  

Resuming Simulation with the following settings
ITL4 = 1000
ABSTOL = 2e-06

Convergence problem in transient analysis at Time =  10.49E-12
         Time step =  298.0E-21, minimum allowable step size =  1.000E-18



  Last node voltages tried were:

 NODE   VOLTAGE     NODE   VOLTAGE     NODE   VOLTAGE     NODE   VOLTAGE


(N02602)    7.3931 (N02628)    2.4612 (N02665) 21.67E-06 (N02669)   15.0000     

(N02931)     .0346 (X_U1A.3)    1.2306                   (X_U1A.4)    3.1757    

(X_U1A.5)     .0681                   (X_U1A.6)    -.0164                       

(X_U1A.7)    2.6042                   (X_U1A.8)   13.3700                       

(X_U1A.9)    7.5000                   (X_U1A.10)     .6350                      

(X_U1A.15)    7.5000                  (X_U1A.16)   10.1020                      

(X_U1A.17)   10.1030                  (X_U1A.20)    7.6583                      

(X_U1A.21)    7.1183                  (X_U1A.22)    7.3883                      

(X_U1A.23)    7.5000                  (X_U1A.24)    7.5000                      

(X_U1A.25)    7.4784                  (X_U1A.26)    8.0183                      

(X_U1A.27)    6.7583                  (X_U1A.49)    7.5000                      

(X_U1A.98)    7.5000                  

Resuming could not converge the circuit, restarting it now

  These voltages failed to converge:

    V(N02628)                 =     2.461V  \     2.461V
    V(N02602)                 =     7.393V  \     7.393V
    V(X_U1A.3)                =     1.231V  \     1.231V
    V(X_U1A.4)                =     3.176V  \     3.176V
    V(X_U1A.5)                =    68.06mV  \    68.06mV
    V(X_U1A.6)                =   -16.41mV  \   -16.41mV
    V(X_U1A.7)                =     2.605V  \     2.604V
    V(X_U1A.16)               =     10.10V  \     10.10V
    V(X_U1A.17)               =     10.10V  \     10.10V
    V(X_U1A.24)               =     7.500V  \     7.500V
    V(X_U1A.26)               =     8.018V  \     8.018V
    V(X_U1A.22)               =     7.388V  \     7.388V
    V(X_U1A.25)               =     7.478V  \     7.478V
    V(X_U1A.27)               =     6.758V  \     6.758V
    V(X_U1A.21)               =     7.118V  \     7.118V
    V(X_U1A.20)               =     7.658V  \     7.658V

  These supply currents failed to converge:

    I(X_U1A.EH)               =   868.66nA  \   868.66nA
    I(X_U1A.E1)               =    1.233mA  \    1.233mA
    I(X_U1A.L2)               =   352.56nA  \   352.56nA
    I(X_U1A.L3)               =    1.233mA  \    1.233mA
    I(V_V2)                   =   -1.234mA  \   -1.234mA
    I(X_U1A.V2)               =    1.000fA  \    5.871pA
    I(X_U1A.V3)               =    1.000fA  \    6.866pA
    I(X_U1A.V6)               =  -505.08nA  \  -505.08nA
    I(X_U1A.V7)               =   -1.234mA  \   -1.234mA
    I(X_U1A.V5)               =   -1.000fA  \  -382.67fA
    I(X_U1A.V4)               =   -0.998fA  \  -159.33fA

  These devices failed to converge:
    X_U1A.D6  X_U1A.EOS X_U1A.F6  X_U1A.G1  X_U1A.Q1  X_U1A.Q2  

ERROR(ORPSIM-16550): Floating point computation failed during matrix solution. Possible solutions: 1)Ensure that all device parameters are in valid range. 2)Try using .options LIMIT

INTERNAL ERROR -- Invalid Number, Divide

ABORTING SIMULATION
**** 02/16/23 16:22:31 ******* PSpice 17.4.0 (Nov 2018) ******* ID# 0 ********

 ** Profile: "OPAMP-test"  [ d:\users\mbt0c\onedrive\dokumente\southampton\part 2\d5\d5 psu\smps-PSpiceFiles\OPAMP\test.sim ] 


 ****     JOB STATISTICS SUMMARY


******************************************************************************



Node counts:
  Top level (NUNODS)                =           6
  External (NCNODS)                 =          27
  Total (NUMNOD)                    =          27

Total device count (NUMEL)          =          49
  Capacitors (C)                    =           4
  Diodes (D)                        =           6
  VCVS (E)                          =           3
  CCCS (F)                          =           1
  VCCS (G)                          =           3
  Current Sources (I)               =           3
  Inductors (L)                     =           2
  BJTs (Q)                          =           2
  Resistors (R)                     =          15
  Voltage Sources (V)               =           8

Number of subcircuits (X)           =           1

Matrix statistics:
  Matrix size (NSTOP)               =          40
  Initial no. elements (NTTAR)      =         143
  No. elements w/ fillin (NTTBR)    =         173
  No. fillins (IFILL)               =          30
  No. overflows (NTTOV)             =         131
  No. LU operations (IOPS)          =         817
  Percent sparsity (PERSPA)         =      89.188

Analysis statistics:
  No. total time points (NUMTTP)    =          41
  No. rejected time points (NUMRTP) =          19
  No. iterations (NUMNIT)           =         248

Size of Probe file                  =     2003185
Load Threads                        =           4

Runtime statistics:                       Seconds      Iterations
  Matrix load                       =         .02
  Matrix solution                   =        0.00               2
  Readin                            =         .02
  General setup                     =        0.00
  CMI setup                     =        0.00
  Setup                             =        0.00
  DC sweep                          =        0.00               0
  Bias point                        =        0.00               0
  AC and noise                      =        0.00               0
  Total transient analysis          =        0.00
  Output                            =        0.00
  Overhead                          =         .19
  License check-out time            =     1133.75
  Total job time (using Solver 1)   =        3.06
