
**** 02/15/23 02:53:49 ******* PSpice 17.4.0 (Nov 2018) ******* ID# 0 ********

 ** Profile: "SCHEMATIC1-Bleed"  [ D:\Users\mbt0c\OneDrive\Dokumente\Southampton\Part 2\D5\D5 PSU\SMPS-PSpiceFiles\SCHEMATIC1\Bleed.s


 ****     CIRCUIT DESCRIPTION


******************************************************************************




** Creating circuit file "Bleed.cir" 
** WARNING: THIS AUTOMATICALLY GENERATED FILE MAY BE OVERWRITTEN BY SUBSEQUENT SIMULATIONS

*Libraries: 
* Profile Libraries :
* Local Libraries :
.LIB "../../../smps-pspicefiles/smps.lib" 
.LIB "../../../3rd party spice models/simulation_model_coolmos_p7_mosfet_700v_spice.lib" 
.LIB "../../../3rd party spice models/ucc24650_netlist.lib" 
.LIB "../../../3rd party spice models/ucc28730_netlist.lib" 
.LIB "../../../3rd party spice models/st_field_effect_ rectifier_v7.lib" 
.LIB "../../../3rd party spice models/we-fb.lib" 
.LIB "../../../transformer.lib" 
.LIB "../../../3rd party spice models/stn9360.lib" 
* From [PSPICE NETLIST] section of C:\SPB_DATA\cdssetup\OrCAD_PSpice\17.4.0\PSpice.ini file:
.lib "nom.lib" 

*Analysis directives: 
.TRAN  0 100ms 0 10n SKIPBP 
.OPTIONS PREORDER
.OPTIONS ADVCONV
.OPTIONS LIMIT= 1e10
.AUTOCONVERGE ITL1=1000 ITL2=1000 ITL4=1000 RELTOL=0.05 ABSTOL=1.0E-6 VNTOL=.001 PIVTOL=1.0E-10 
.PROBE64 V(alias(*)) I(alias(*)) W(alias(*)) D(alias(*)) NOISE(alias(*)) 
.INC "..\SCHEMATIC1.net" 



**** INCLUDING SCHEMATIC1.net ****
* source SMPS
X_D4         N13710 N13691 power_diode_p PARAMS: I_REV_LEAK=0.004m
+  CT_ZERO_VOLTS=300p V_BR=100 VJ_KNEE=0.4 VJ_SPEC=0.6 IF_SPEC=10
V_V2         N16440 0   PWL    
+ 0 0 5m 25  
R_R4         N13413 N11065  5k TC=0,0 
X_D1         N13727 N105251 power_diode_p PARAMS: I_REV_LEAK=1e-5
+  CT_ZERO_VOLTS=300p V_BR=600 VJ_KNEE=0.9 VJ_SPEC=1.6 IF_SPEC=6
R_R8         N13710 N13691  100 TC=0,0 
C_C1         N11041 0  220u  TC=0,0 
R_R6         0 N14358  1G TC=0,0 
D_D7         N15388 N15448 Dbreak 
R_R3         0 N11065  0.821 TC=0,0 
X_D6         N14522 N15448 Zener PARAMS: VZT=150 TCBV=150 
R_R5         N14973 N105251  22 TC=0,0 
R_R11         N30503 0  800k TC=0,0 
X_U4         0 N11041 Sw_tClose PARAMS: tClose=15m ttran=1u Rclosed=207.36
+  Ropen=1Meg
X_D8          0 0 N10823 FERD20S100SB-TR
C_C2         0 N14973  8.2u  TC=0,0 
X_D2         N16440 N14973 power_diode_p PARAMS: I_REV_LEAK=1e-5
+  CT_ZERO_VOLTS=300p V_BR=600 VJ_KNEE=0.9 VJ_SPEC=1.6 IF_SPEC=6
X_U5          N13413 N14522 N13830 N14358 N14973 N13710 0 UCC28730_netlist
X_U6          N10823 N11041 0 0 0 UCC24650
X_U7          N15388 N13691 N11065 IPN70R1K2P7S_L1 PARAMS: dRdson=0 dVth=0
X_T1          N14522 N13497 N13497 N15388 0 N13727 N10823 N11041 N10823 N11041
+  N10823 N11041 FB_EFD25_750311771
R_R12         N13727 N13830  71.5k TC=0,0 
R_R1         N13830 0  27.4k TC=0,0 
L_L1         N27965 N14522  470u  
C_C4         0 N27965  470n  TC=0,0 
X_D9         N27965 N28045 0 N28041 awbvbo13_04n01 PARAMS:              
C_C3         0 N14522  470n  TC=0,0 
V_V3         N28041 N28045 DC 0 AC 0
+SIN 0 375 50 0 0 0
C_C6         0 N30402  100n  TC=0,0 
R_R13         0 N30402  200M TC=0,0 
X_D10         N28041 N30402 power_diode_p PARAMS: I_REV_LEAK=0.004m
+  CT_ZERO_VOLTS=300p V_BR=100 VJ_KNEE=0.4 VJ_SPEC=0.6 IF_SPEC=10
X_M1         N30503 N30402 N14522 power_pmos_p PARAMS: CRSS=52p CISS=1630p
+  COSS=902p BVDSS=-400 RDSON=5 RG=0.8 VGS_TH=-4 VSD=-0.8 IDSS=1u GFS=47 QG=13n
+  V_QG=-4.5 TRR=50n
X_D11         N30402 N332700 Zener PARAMS: VZT=25 TCBV=1.7 
X_D12         N14522 N332700 Zener PARAMS: VZT=25 TCBV=1.7 

**** RESUMING Bleed.cir ****
.END

**** 02/15/23 02:53:49 ******* PSpice 17.4.0 (Nov 2018) ******* ID# 0 ********

 ** Profile: "SCHEMATIC1-Bleed"  [ D:\Users\mbt0c\OneDrive\Dokumente\Southampton\Part 2\D5\D5 PSU\SMPS-PSpiceFiles\SCHEMATIC1\Bleed.s


 ****     Diode MODEL PARAMETERS


******************************************************************************




               Dbreak          X_D4.D1exp      X_D1.D1exp      X_D8.dx         
          IS   10.000000E-15    4.000000E-06   10.000000E-06    8.163600E-06 
           N                                                    1.0339       
         ISR                                                  135.440000E-18 
          NR                                                    4.995        
         IKF                                                  770.09         
          BV                  100             600                            
          RS     .1              .02             .116667         .029687     
         CJO  100.000000E-15  300.000000E-12  300.000000E-12    4.884700E-09 
          VJ                                                    8.1791       
           M                                                   10            
          EG                                                     .423        
         XTI                                                    2            


               X_D2.D1exp      X_D10.D1exp     
          IS   10.000000E-06    4.000000E-06 
          BV  600             100            
          RS     .116667         .02         
         CJO  300.000000E-12  300.000000E-12 


               X_M1.P_MOSFET.DBT 
          IS    1.000000E-06 
           N    2.693299     
          BV  400            
          TT   50.000000E-09 
         CJO  100.000000E-15 
           M     .35         


**** 02/15/23 02:53:49 ******* PSpice 17.4.0 (Nov 2018) ******* ID# 0 ********

 ** Profile: "SCHEMATIC1-Bleed"  [ D:\Users\mbt0c\OneDrive\Dokumente\Southampton\Part 2\D5\D5 PSU\SMPS-PSpiceFiles\SCHEMATIC1\Bleed.s


 ****     MOSFET MODEL PARAMETERS


******************************************************************************




               X_M1.P_MOSFET   
               PMOS            
       LEVEL    1            
           L  100.000000E-06 
           W  100.000000E-06 
         VTO   -4.4          
          KP   94            
       GAMMA    0            
         PHI     .6          
      LAMBDA    0            
          IS   10.000000E-15 
          JS    0            
          PB     .8          
        PBSW     .8          
          CJ    0            
        CJSW    0            
        CGSO    0            
        CGDO    0            
        CGBO    0            
         TOX  100.000000E-09 
          XJ    0            
       UCRIT   10.000000E+03 
      DIOMOD    1            
         VFB    0            
        LETA    0            
        WETA    0            
          U0    0            
        TEMP    0            
         VDD    5            
       XPART    0            


**** 02/15/23 02:53:49 ******* PSpice 17.4.0 (Nov 2018) ******* ID# 0 ********

 ** Profile: "SCHEMATIC1-Bleed"  [ D:\Users\mbt0c\OneDrive\Dokumente\Southampton\Part 2\D5\D5 PSU\SMPS-PSpiceFiles\SCHEMATIC1\Bleed.s


 ****     Voltage Controlled Switch MODEL PARAMETERS


******************************************************************************




               X_U4.Smod       X_M1.S_GATE_CHG_SW 
         RON  207.36             .01         
        ROFF    1.000000E+06  100.000000E+06 
         VON    1              -5.1          
        VOFF    0              -4            


          JOB ABORTED

**** 02/15/23 02:53:49 ******* PSpice 17.4.0 (Nov 2018) ******* ID# 0 ********

 ** Profile: "SCHEMATIC1-Bleed"  [ D:\Users\mbt0c\OneDrive\Dokumente\Southampton\Part 2\D5\D5 PSU\SMPS-PSpiceFiles\SCHEMATIC1\Bleed.s


 ****     JOB STATISTICS SUMMARY


******************************************************************************



  Total job time (using Solver 1)   =       29.38
